
Spectre (R) Circuit Simulator
Version 23.1.0.594.isr12 64bit -- 13 Sep 2024
Copyright (C) 1989-2024 Cadence Design Systems, Inc. All rights reserved worldwide. Cadence and Spectre are registered trademarks of Cadence Design Systems, Inc. All others are the property of their respective holders.

Includes RSA BSAFE(R) Cryptographic or Security Protocol Software from RSA Security, Inc.

User: cinovador   Host: cinova05.lesc.ufc.br   HostID: A8C0050F   PID: 115904
Memory  available: 22.3368 GB  physical: 33.1098 GB
Linux   : Rocky Linux release 8.10 (Green Obsidian)
CPU Type: 13th Gen Intel(R) Core(TM) i5-13500
        Socket: Processors [Frequency] (Hyperthreaded Processor)
        0:       0 [3530.6] (  1 ),  1 [2500.0] (),  2 [4311.1] (  3 )
                 3 [2500.0] (),  4 [4500.0] (  5 ),  5 [2500.0] (),  6 [2500.0] (  7 )
                 7 [2500.0] (),  8 [2500.0] (  9 ),  9 [2500.0] (), 10 [2782.4] ( 11 )
                11 [4062.0] (), 12 [2500.0] (), 13 [2500.0] (), 14 [2500.0] (), 15 [2500.0] ()
                16 [2500.0] (), 17 [2500.0] (), 18 [2500.0] (), 19 [2500.0] ()
        
System load averages (1min, 5min, 15min) : 1.2 %, 1.2 %, 1.4 %
Hyperthreading is enabled
HPC is enabled


Simulating `input.scs' on cinova05.lesc.ufc.br at 5:25:57 PM, Thur Oct 31, 2024 (process id: 115904).
Current working directory: /home/cinovador/Documents/course_files/digital_logic/practice_2/logic_gates/nor_gate/maestro/logic_gates/nor_gate/maestro/results/maestro/ExplorerRun.0/1/logic_gates_nor_gate_1/netlist
Command line:
    /home/tools/cadence/installs/SPECTRE231/tools.lnx86/bin/spectre -64  \
        input.scs +escchars +log ../psf/spectre.out -format psfxl -raw  \
        ../psf +aps +mt +lqtimeout 900 -maxw 5 -maxn 5 -env ade  \
        +adespetkn=0001089D13A302B663E41FB550AF0DF415A679A322D5069144BF588C12F604E07EF416DC01A319B562BB63D37ECC388545A349F263C84C8942CE55C8138C4F926EEF79D15D9175FF349861DF1FFE10BC42F961DF4BA444E642F92692369474D30EA879D118F874D3349879D118F874D334981EF2FF33931853BB0000368B  \
        -ahdllibdir  \
        /home/cinovador/Documents/course_files/digital_logic/practice_2/logic_gates/nor_gate/maestro/logic_gates/nor_gate/maestro/results/maestro/ExplorerRun.0/sharedData/CDS/ahdl/input.ahdlSimDB  \
        +logstatus

Simulation Id: LVCjFuvV8Z05vnZw
Licensing Information:
[17:25:58.101345] Configured Lic search path (22.01-s002): 5280@192.168.0.10

Licensing Information:
[17:26:00.073842] Periodic Lic check successful

Loading /home/tools/cadence/installs/SPECTRE231/tools.lnx86/cmi/lib/64bit/5.0/libinfineon_sh.so ...
Loading /home/tools/cadence/installs/SPECTRE231/tools.lnx86/cmi/lib/64bit/5.0/libphilips_I_sh.so ...
Loading /home/tools/cadence/installs/SPECTRE231/tools.lnx86/cmi/lib/64bit/5.0/libphilips_sh.so ...
Loading /home/tools/cadence/installs/SPECTRE231/tools.lnx86/cmi/lib/64bit/5.0/libsparam_sh.so ...
Loading /home/tools/cadence/installs/SPECTRE231/tools.lnx86/cmi/lib/64bit/5.0/libstmodels_sh.so ...
Reading file:  /home/cinovador/Documents/course_files/digital_logic/practice_2/logic_gates/nor_gate/maestro/logic_gates/nor_gate/maestro/results/maestro/ExplorerRun.0/1/logic_gates_nor_gate_1/netlist/input.scs
Reading file:  /home/tools/cadence/installs/SPECTRE231/tools.lnx86/spectre/etc/configs/spectre.cfg
Reading file:  /home/cinovador/Documents/course_files/digital_logic/practice_2/logic_gates/nor_gate/maestro/logic_gates/nor_gate/maestro/results/maestro/ExplorerRun.0/1/logic_gates_nor_gate_1/netlist/ade_e.scs
Reading file:  /home/tools/cadence/gpdk/gpdk045_v_6_0/models/spectre/gpdk045.scs
Reading file:  /home/tools/cadence/gpdk/gpdk045_v_6_0/models/spectre/gpdk045_mos.scs
Reading file:  /home/tools/cadence/gpdk/gpdk045_v_6_0/models/spectre/gpdk045_diode.scs
Reading file:  /home/tools/cadence/gpdk/gpdk045_v_6_0/models/spectre/gpdk045_bipolar.scs
Reading file:  /home/tools/cadence/gpdk/gpdk045_v_6_0/models/spectre/gpdk045_mimcap.scs
Reading file:  /home/tools/cadence/gpdk/gpdk045_v_6_0/models/spectre/gpdk045_moscap.scs
Reading file:  /home/tools/cadence/gpdk/gpdk045_v_6_0/models/spectre/gpdk045_resistor.scs
Reading file:  /home/tools/cadence/gpdk/gpdk045_v_6_0/models/spectre/gpdk045_inductor.scs
Reading file:  /home/tools/cadence/gpdk/gpdk045_v_6_0/models/spectre/gpdk045_soa.scs
Reading file:  /home/cinovador/Documents/course_files/digital_logic/practice_2/logic_gates/nor_gate/maestro/logic_gates/nor_gate/maestro/results/maestro/ExplorerRun.0/1/logic_gates_nor_gate_1/netlist/_graphical_stimuli.scs
Time for NDB Parsing: CPU = 259.308 ms, elapsed = 2.47468 s.
Time accumulated: CPU = 296.535 ms, elapsed = 2.47468 s.
Peak resident memory used = 185 Mbytes.

Reading link:  /home/tools/cadence/installs/SPECTRE231/tools.lnx86/spectre/etc/ahdl/discipline.h
Reading file:  /home/tools/cadence/installs/SPECTRE231/tools.lnx86/spectre/etc/ahdl/disciplines.vams
Reading link:  /home/tools/cadence/installs/SPECTRE231/tools.lnx86/spectre/etc/ahdl/constants.h
Reading file:  /home/tools/cadence/installs/SPECTRE231/tools.lnx86/spectre/etc/ahdl/constants.vams
Existing shared object for module bsource_2b273e is up to date.
Installed compiled interface for bsource_2b273e.
Time for Elaboration: CPU = 10.241 ms, elapsed = 10.216 ms.
Time accumulated: CPU = 306.827 ms, elapsed = 2.48495 s.
Peak resident memory used = 198 Mbytes.


Notice from spectre during hierarchy flattening.
    The value 'psf' specified for the 'checklimitdest' option will no longer be supported in future releases. Use 'spectre -h' to see other recommended values for the 'checklimitdest' option.

 Start ADE Session ID: LVCjFuvV8Z05vnZw

Time for EDB Visiting: CPU = 456 us, elapsed = 460.863 us.
Time accumulated: CPU = 307.332 ms, elapsed = 2.48546 s.
Peak resident memory used = 199 Mbytes.


Notice from spectre during initial setup.
    Multithreading is disabled due to the size of the design being too small.

Netlist title:
        // Point Netlist Generated on: Oct 31 17:25:42 2024


Global user options:
         psfversion = 1.4.0
            vabstol = 1e-06
            iabstol = 1e-12
               temp = 27
               gmin = 1e-12
             rforce = 1
           maxnotes = 5
           maxwarns = 5
             digits = 5
               cols = 80
             pivrel = 0.001
           sensfile = ../psf/sens.output
     checklimitdest = psf
               save = allpub
             reltol = 0.001
               tnom = 27
             scalem = 1
              scale = 1

Scoped user options:

Circuit inventory:
              nodes 9
              bsim4 4     
     bsource_2b273e 4     
          capacitor 1     
            vsource 3     

Analysis and control statement inventory:
               info 7     
               tran 1     

Output statements:
             .probe 0     
           .measure 0     
               save 1     

Design checks inventory:
          paramtest 1     


Notice from spectre during initial setup.
    Protected devices exist and are not included in the circuit inventory.
    APS enabled.

Time for parsing: CPU = 1.537 ms, elapsed = 133.294 ms.
Time accumulated: CPU = 308.905 ms, elapsed = 2.61879 s.
Peak resident memory used = 202 Mbytes.

~~~~~~~~~~~~~~~~~~~~~~
Pre-Simulation Summary
~~~~~~~~~~~~~~~~~~~~~~
   -   (APS) Multi-threading. The recommended number of threads is 1, consider adding +mt=1 on command line.
~~~~~~~~~~~~~~~~~~~~~~

*************************************************
Transient Analysis `tran': time = (0 s -> 100 ns)
*************************************************
DC simulation time: CPU = 229 us, elapsed = 231.028 us.

Opening the PSFXL file ../psf/tran.tran.tran ...
Important parameter values:
    start = 0 s
    outputstart = 0 s
    stop = 100 ns
    step = 100 ps
    maxstep = 2 ns
    ic = all
    useprevic = no
    skipdc = no
    reltol = 1e-03
    abstol(V) = 1 uV
    abstol(I) = 1 pA
    temp = 27 C
    tnom = 27 C
    tempeffects = all
    errpreset = moderate
    method = traponly
    lteratio = 3.5
    relref = sigglobal
    cmin = 0 F
    gmin = 1 pS
    rabsshort = 1 mOhm


Notice from spectre during transient analysis `tran'.
    Multithreading is disabled due to the size of the design being too small.


Output and IC/nodeset summary:
                 save   3       (current)
                 save   9       (voltage)


Notice from spectre at time = 1.0033 ns during transient analysis `tran'.
    Found trapezoidal ringing on node PM0.n1.
Notice from spectre at time = 1.00339 ns during transient analysis `tran'.
    Found trapezoidal ringing on node PM0.n1.
Notice from spectre at time = 1.00357 ns during transient analysis `tran'.
    Found trapezoidal ringing on node PM0.n1.
Notice from spectre at time = 1.00385 ns during transient analysis `tran'.
    Found trapezoidal ringing on node PM0.n1.
Notice from spectre at time = 1.00399 ns during transient analysis `tran'.
    Found trapezoidal ringing on node PM0.n1.
        Further occurrences of this notice will be suppressed.

    tran: time = 2.508 ns    (2.51 %), step = 71.31 ps    (71.3 m%)
    tran: time = 7.542 ns    (7.54 %), step = 114.5 ps     (114 m%)
    tran: time = 12.51 ns    (12.5 %), step = 36.75 ps    (36.7 m%)
    tran: time = 17.53 ns    (17.5 %), step = 61.99 ps      (62 m%)
    tran: time = 22.51 ns    (22.5 %), step = 71.17 ps    (71.2 m%)
    tran: time = 27.54 ns    (27.5 %), step = 114.5 ps     (114 m%)
    tran: time = 32.51 ns    (32.5 %), step = 36.75 ps    (36.7 m%)
    tran: time = 37.53 ns    (37.5 %), step = 61.99 ps      (62 m%)
    tran: time = 42.51 ns    (42.5 %), step = 71.17 ps    (71.2 m%)
    tran: time = 47.54 ns    (47.5 %), step = 114.5 ps     (114 m%)
    tran: time = 52.51 ns    (52.5 %), step = 36.75 ps    (36.7 m%)
    tran: time = 57.53 ns    (57.5 %), step = 61.99 ps      (62 m%)
    tran: time = 62.51 ns    (62.5 %), step = 71.17 ps    (71.2 m%)
    tran: time = 67.54 ns    (67.5 %), step = 114.5 ps     (114 m%)
    tran: time = 72.51 ns    (72.5 %), step = 36.75 ps    (36.7 m%)
    tran: time = 77.53 ns    (77.5 %), step = 61.99 ps      (62 m%)
    tran: time = 82.51 ns    (82.5 %), step = 71.17 ps    (71.2 m%)
    tran: time = 87.54 ns    (87.5 %), step = 114.5 ps     (114 m%)
    tran: time = 92.51 ns    (92.5 %), step = 36.75 ps    (36.7 m%)
    tran: time = 97.53 ns    (97.5 %), step = 61.99 ps      (62 m%)
Number of accepted tran steps =             5778

Notice from spectre during transient analysis `tran'.
    Trapezoidal ringing is detected during tran analysis.
        Please use method=trap for better results and performance.


Maximum value achieved for any signal of each quantity: 
V: V(net7) = 1.37 V
I: I(V1:p) = 235.7 uA
If your circuit contains signals of the same quantity that are vastly different in size (such as high voltage circuitry combined with low voltage control circuitry), you should consider specifying global option `bin_relref=yes'.

~~~~~~~~~~~~~~~~~~~~~~~~~~~~~~~~~
Post-Transient Simulation Summary
~~~~~~~~~~~~~~~~~~~~~~~~~~~~~~~~~
   -   To further speed up simulation, consider
          add ++aps on command line
~~~~~~~~~~~~~~~~~~~~~~~~~~~~~~~~~


During simulation, the CPU load for active processors is :
         0 (6.0 %)       1 (1.5 %)       2 (16.2 %)      4 (24.0 %)
         6 (21.4 %)      8 (4.8 %)      10 (6.7 %)      12 (1.5 %)
        Total: 86.6%
Initial condition solution time: CPU = 254 us, elapsed = 255.108 us.
Intrinsic tran analysis time:    CPU = 209.2 ms, elapsed = 210.577 ms.
Total time required for tran analysis `tran': CPU = 210.112 ms, elapsed = 211.489 ms, util. = 99.3%.
Time accumulated: CPU = 523.397 ms, elapsed = 2.83584 s.
Peak resident memory used = 210 Mbytes.


Notice from spectre.
    2515 notices suppressed.

finalTimeOP: writing operating point information to rawfile.

Opening the PSF file ../psf/finalTimeOP.info ...
modelParameter: writing model parameter values to rawfile.

Opening the PSF file ../psf/modelParameter.info ...
element: writing instance parameter values to rawfile.

Opening the PSF file ../psf/element.info ...
outputParameter: writing output parameter values to rawfile.

Opening the PSF file ../psf/outputParameter.info ...
designParamVals: writing netlist parameters to rawfile.

Opening the PSFASCII file ../psf/designParamVals.info ...
primitives: writing primitives to rawfile.

Opening the PSFASCII file ../psf/primitives.info.primitives ...
subckts: writing subcircuits to rawfile.

Opening the PSFASCII file ../psf/subckts.info.subckts ...
Licensing Information:
Lic Summary:
[17:26:00.298233] Cdslmd servers:5280@192.168.0.10
[17:26:00.298241] Feature usage summary:
[17:26:00.298242] Virtuoso_Multi_mode_Simulation


Aggregate audit (5:26:00 PM, Thur Oct 31, 2024):
Time used: CPU = 534 ms, elapsed = 2.85 s, util. = 18.7%.
Time spent in licensing: elapsed = 1.43 s, percentage of total = 50%.
Peak memory used = 212 Mbytes.
Simulation started at: 5:25:57 PM, Thur Oct 31, 2024, ended at: 5:26:00 PM, Thur Oct 31, 2024, with elapsed time (wall clock): 2.85 s.
spectre completes with 0 errors, 0 warnings, and 13 notices.
