
Spectre (R) Circuit Simulator
Version 23.1.0.594.isr12 64bit -- 13 Sep 2024
Copyright (C) 1989-2024 Cadence Design Systems, Inc. All rights reserved worldwide. Cadence and Spectre are registered trademarks of Cadence Design Systems, Inc. All others are the property of their respective holders.

Includes RSA BSAFE(R) Cryptographic or Security Protocol Software from RSA Security, Inc.

User: cinovador   Host: cinova05.lesc.ufc.br   HostID: A8C0050F   PID: 19345
Memory  available: 25.4967 GB  physical: 33.1098 GB
Linux   : Rocky Linux release 8.10 (Green Obsidian)
CPU Type: 13th Gen Intel(R) Core(TM) i5-13500
        Socket: Processors [Frequency] (Hyperthreaded Processor)
        0:       0 [2500.0] (  1 ),  1 [2500.0] (),  2 [1178.4] (  3 )
                 3 [2500.0] (),  4 [2500.0] (  5 ),  5 [2500.0] (),  6 [2500.0] (  7 )
                 7 [2500.0] (),  8 [2500.0] (  9 ),  9 [2500.0] (), 10 [2500.0] ( 11 )
                11 [2500.0] (), 12 [2500.0] (), 13 [2500.0] (), 14 [2500.0] (), 15 [2500.0] ()
                16 [2500.0] (), 17 [2500.0] (), 18 [2500.0] (), 19 [2500.0] ()
        
System load averages (1min, 5min, 15min) : 1.6 %, 3.1 %, 4.2 %
Hyperthreading is enabled
HPC is enabled


Simulating `input.scs' on cinova05.lesc.ufc.br at 9:05:06 AM, Mon Nov 4, 2024 (process id: 19345).
Current working directory: /home/cinovador/Documents/course_files/digital_logic/practice_2/logic_gates/q3_expr/maestro/logic_gates/q3_expr/maestro/results/maestro/ExplorerRun.0/1/logic_gates_q3_expr_1/netlist
Command line:
    /home/tools/cadence/installs/SPECTRE231/tools.lnx86/bin/spectre -64  \
        input.scs +escchars +log ../psf/spectre.out -format psfxl -raw  \
        ../psf +aps +mt +lqtimeout 900 -maxw 5 -maxn 5 -env ade  \
        +adespetkn=0001089D13A302B663E41FB550AF0DF415A679A322D5069144BF588C12F604E07EF416DC01A319B562BB63D347D1019845A37DB32FE613AB5EA946DB54D74F9245EA79D15D9175FF349861DF1FFE10BC42F961DF4BA444E642F92692369474D30EA879D118F874D3349879D118F874D334981EF9A088CCA353B000003684  \
        -ahdllibdir  \
        /home/cinovador/Documents/course_files/digital_logic/practice_2/./logic_gates/q3_expr/maestro/logic_gates/q3_expr/maestro/results/maestro/ExplorerRun.0/sharedData/CDS/ahdl/input.ahdlSimDB  \
        +logstatus

Simulation Id: uKPfnSj1gxwnNxqr
Licensing Information:
[09:05:06.101281] Configured Lic search path (22.01-s002): 5280@192.168.0.10

Licensing Information:
[09:05:08.207969] Periodic Lic check successful

Loading /home/tools/cadence/installs/SPECTRE231/tools.lnx86/cmi/lib/64bit/5.0/libinfineon_sh.so ...
Loading /home/tools/cadence/installs/SPECTRE231/tools.lnx86/cmi/lib/64bit/5.0/libphilips_I_sh.so ...
Loading /home/tools/cadence/installs/SPECTRE231/tools.lnx86/cmi/lib/64bit/5.0/libphilips_sh.so ...
Loading /home/tools/cadence/installs/SPECTRE231/tools.lnx86/cmi/lib/64bit/5.0/libsparam_sh.so ...
Loading /home/tools/cadence/installs/SPECTRE231/tools.lnx86/cmi/lib/64bit/5.0/libstmodels_sh.so ...
Reading file:  /home/cinovador/Documents/course_files/digital_logic/practice_2/logic_gates/q3_expr/maestro/logic_gates/q3_expr/maestro/results/maestro/ExplorerRun.0/1/logic_gates_q3_expr_1/netlist/input.scs
Reading file:  /home/tools/cadence/installs/SPECTRE231/tools.lnx86/spectre/etc/configs/spectre.cfg
Reading file:  /home/cinovador/Documents/course_files/digital_logic/practice_2/logic_gates/q3_expr/maestro/logic_gates/q3_expr/maestro/results/maestro/ExplorerRun.0/1/logic_gates_q3_expr_1/netlist/ade_e.scs
Reading file:  /home/tools/cadence/gpdk/gpdk045_v_6_0/models/spectre/gpdk045.scs
Reading file:  /home/tools/cadence/gpdk/gpdk045_v_6_0/models/spectre/gpdk045_mos.scs
Reading file:  /home/tools/cadence/gpdk/gpdk045_v_6_0/models/spectre/gpdk045_diode.scs
Reading file:  /home/tools/cadence/gpdk/gpdk045_v_6_0/models/spectre/gpdk045_bipolar.scs
Reading file:  /home/tools/cadence/gpdk/gpdk045_v_6_0/models/spectre/gpdk045_mimcap.scs
Reading file:  /home/tools/cadence/gpdk/gpdk045_v_6_0/models/spectre/gpdk045_moscap.scs
Reading file:  /home/tools/cadence/gpdk/gpdk045_v_6_0/models/spectre/gpdk045_resistor.scs
Reading file:  /home/tools/cadence/gpdk/gpdk045_v_6_0/models/spectre/gpdk045_inductor.scs
Reading file:  /home/tools/cadence/gpdk/gpdk045_v_6_0/models/spectre/gpdk045_soa.scs
Reading file:  /home/cinovador/Documents/course_files/digital_logic/practice_2/logic_gates/q3_expr/maestro/logic_gates/q3_expr/maestro/results/maestro/ExplorerRun.0/1/logic_gates_q3_expr_1/netlist/_graphical_stimuli.scs
Time for NDB Parsing: CPU = 270.583 ms, elapsed = 2.51664 s.
Time accumulated: CPU = 332.458 ms, elapsed = 2.51664 s.
Peak resident memory used = 186 Mbytes.

Reading link:  /home/tools/cadence/installs/SPECTRE231/tools.lnx86/spectre/etc/ahdl/discipline.h
Reading file:  /home/tools/cadence/installs/SPECTRE231/tools.lnx86/spectre/etc/ahdl/disciplines.vams
Reading link:  /home/tools/cadence/installs/SPECTRE231/tools.lnx86/spectre/etc/ahdl/constants.h
Reading file:  /home/tools/cadence/installs/SPECTRE231/tools.lnx86/spectre/etc/ahdl/constants.vams
Created directory /home/cinovador/Documents/course_files/digital_logic/practice_2/./logic_gates/q3_expr/maestro/logic_gates/q3_expr/maestro/results/maestro/ExplorerRun.0/sharedData/CDS/ahdl/input.ahdlSimDB/input.ahdlSimDB/ (775)
Created directory /home/cinovador/Documents/course_files/digital_logic/practice_2/./logic_gates/q3_expr/maestro/logic_gates/q3_expr/maestro/results/maestro/ExplorerRun.0/sharedData/CDS/ahdl/input.ahdlSimDB/input.ahdlSimDB//bsource_2b273e.va.bsource_2b273e.ahdlcmi/ (775)
Reading file:  /home/cinovador/Documents/course_files/practice_0/lab1_part2/fanout-1/fanout-tests/inverter/maestro/results/maestro/ExplorerRun.0/sharedData/CDS/ahdl/input.ahdlSimDB/input.ahdlSimDB/bsource_2b273e.va.bsource_2b273e.ahdlcmi/Linux-64/obj/optimize/5.0/libahdlcmi_bsource_2b273e.so
Created directory /home/cinovador/Documents/course_files/digital_logic/practice_2/./logic_gates/q3_expr/maestro/logic_gates/q3_expr/maestro/results/maestro/ExplorerRun.0/sharedData/CDS/ahdl/input.ahdlSimDB/input.ahdlSimDB//bsource_2b273e.va.bsource_2b273e.ahdlcmi/Linux-64/obj/optimize/5.0 
Copying files from directory /home/cinovador/Documents/course_files/practice_0/lab1_part2/fanout-1/fanout-tests/inverter/maestro/results/maestro/ExplorerRun.0/sharedData/CDS/ahdl/input.ahdlSimDB/input.ahdlSimDB/bsource_2b273e.va.bsource_2b273e.ahdlcmi/Linux-64/ to directory /home/cinovador/Documents/course_files/digital_logic/practice_2/./logic_gates/q3_expr/maestro/logic_gates/q3_expr/maestro/results/maestro/ExplorerRun.0/sharedData/CDS/ahdl/input.ahdlSimDB/input.ahdlSimDB//bsource_2b273e.va.bsource_2b273e.ahdlcmi/Linux-64/
Finished copying files from /home/cinovador/Documents/course_files/practice_0/lab1_part2/fanout-1/fanout-tests/inverter/maestro/results/maestro/ExplorerRun.0/sharedData/CDS/ahdl/input.ahdlSimDB/input.ahdlSimDB/bsource_2b273e.va.bsource_2b273e.ahdlcmi/Linux-64/ to /home/cinovador/Documents/course_files/digital_logic/practice_2/./logic_gates/q3_expr/maestro/logic_gates/q3_expr/maestro/results/maestro/ExplorerRun.0/sharedData/CDS/ahdl/input.ahdlSimDB/input.ahdlSimDB//bsource_2b273e.va.bsource_2b273e.ahdlcmi/Linux-64/.
The simulator has reused the existing Verilog-A libraries for this simulation run. If you do not want to use these libraries, set the 'CDS_AHDL_REUSE_LIB' environment variable to 'NO' and rerun the simulation.
Existing shared object for module bsource_2b273e is up to date.
Installed compiled interface for bsource_2b273e.
Time for Elaboration: CPU = 21.31 ms, elapsed = 31.8391 ms.
Time accumulated: CPU = 353.823 ms, elapsed = 2.54854 s.
Peak resident memory used = 200 Mbytes.


Notice from spectre during hierarchy flattening.
    The value 'psf' specified for the 'checklimitdest' option will no longer be supported in future releases. Use 'spectre -h' to see other recommended values for the 'checklimitdest' option.

 Start ADE Session ID: uKPfnSj1gxwnNxqr

Time for EDB Visiting: CPU = 679 us, elapsed = 679.016 us.
Time accumulated: CPU = 354.573 ms, elapsed = 2.54929 s.
Peak resident memory used = 202 Mbytes.


Notice from spectre during initial setup.
    Multithreading is disabled due to the size of the design being too small.

Netlist title:
        // Point Netlist Generated on: Nov  4 09:05:03 2024


Global user options:
         psfversion = 1.4.0
            vabstol = 1e-06
            iabstol = 1e-12
               temp = 27
               gmin = 1e-12
             rforce = 1
           maxnotes = 5
           maxwarns = 5
             digits = 5
               cols = 80
             pivrel = 0.001
           sensfile = ../psf/sens.output
     checklimitdest = psf
               save = allpub
             reltol = 0.001
               tnom = 27
             scalem = 1
              scale = 1

Scoped user options:

Circuit inventory:
              nodes 16
              bsim4 8     
     bsource_2b273e 8     
            vsource 4     

Analysis and control statement inventory:
               info 7     
               tran 1     

Output statements:
             .probe 0     
           .measure 0     
               save 0     

Design checks inventory:
          paramtest 1     


Notice from spectre during initial setup.
    Protected devices exist and are not included in the circuit inventory.
    APS enabled.

Time for parsing: CPU = 1.541 ms, elapsed = 127.246 ms.
Time accumulated: CPU = 356.148 ms, elapsed = 2.67656 s.
Peak resident memory used = 205 Mbytes.

~~~~~~~~~~~~~~~~~~~~~~
Pre-Simulation Summary
~~~~~~~~~~~~~~~~~~~~~~
   -   (APS) Multi-threading. The recommended number of threads is 1, consider adding +mt=1 on command line.
~~~~~~~~~~~~~~~~~~~~~~

*************************************************
Transient Analysis `tran': time = (0 s -> 100 ns)
*************************************************
Trying `homotopy = gmin' for initial conditions.

Notice from spectre during IC analysis, during transient analysis `tran'.
    GminDC = 1 pS is large enough to noticeably affect the DC solution.
        dV(net11) = 58.7691 mV
        Use the `gmin_check' option to eliminate or expand this report.

DC simulation time: CPU = 2.049 ms, elapsed = 2.05398 ms.

Opening the PSFXL file ../psf/tran.tran.tran ...
Important parameter values:
    start = 0 s
    outputstart = 0 s
    stop = 100 ns
    step = 100 ps
    maxstep = 2 ns
    ic = all
    useprevic = no
    skipdc = no
    reltol = 1e-03
    abstol(V) = 1 uV
    abstol(I) = 1 pA
    temp = 27 C
    tnom = 27 C
    tempeffects = all
    errpreset = moderate
    method = traponly
    lteratio = 3.5
    relref = sigglobal
    cmin = 0 F
    gmin = 1 pS
    rabsshort = 1 mOhm


Notice from spectre during transient analysis `tran'.
    Multithreading is disabled due to the size of the design being too small.


Output and IC/nodeset summary:
                 save   4       (current)
                 save   16      (voltage)


Notice from spectre at time = 2.25454 ps during transient analysis `tran'.
    Found trapezoidal ringing on node PM12.n1.
Notice from spectre at time = 2.36511 ps during transient analysis `tran'.
    Found trapezoidal ringing on node PM12.n1.
Notice from spectre at time = 2.41055 ps during transient analysis `tran'.
    Found trapezoidal ringing on node PM12.n1.
Notice from spectre at time = 2.50144 ps during transient analysis `tran'.
    Found trapezoidal ringing on node PM12.n1.
Notice from spectre at time = 2.68322 ps during transient analysis `tran'.
    Found trapezoidal ringing on node PM12.n1.
        Further occurrences of this notice will be suppressed.

    tran: time = 2.502 ns     (2.5 %), step = 50.06 ps    (50.1 m%)
    tran: time = 7.502 ns     (7.5 %), step = 81.93 ps    (81.9 m%)
    tran: time = 12.5 ns     (12.5 %), step = 81.88 ps    (81.9 m%)
    tran: time = 17.5 ns     (17.5 %), step = 86.79 ps    (86.8 m%)
    tran: time = 22.5 ns     (22.5 %), step = 69 ps         (69 m%)
    tran: time = 27.5 ns     (27.5 %), step = 57.42 ps    (57.4 m%)
    tran: time = 32.5 ns     (32.5 %), step = 125.4 ps     (125 m%)
    tran: time = 37.5 ns     (37.5 %), step = 81.93 ps    (81.9 m%)
    tran: time = 42.5 ns     (42.5 %), step = 81.88 ps    (81.9 m%)
    tran: time = 47.5 ns     (47.5 %), step = 86.79 ps    (86.8 m%)
    tran: time = 52.5 ns     (52.5 %), step = 69 ps         (69 m%)
    tran: time = 57.5 ns     (57.5 %), step = 57.42 ps    (57.4 m%)
    tran: time = 62.5 ns     (62.5 %), step = 125.4 ps     (125 m%)
    tran: time = 67.5 ns     (67.5 %), step = 81.93 ps    (81.9 m%)
    tran: time = 72.5 ns     (72.5 %), step = 81.88 ps    (81.9 m%)
    tran: time = 77.5 ns     (77.5 %), step = 86.79 ps    (86.8 m%)
    tran: time = 82.5 ns     (82.5 %), step = 69 ps         (69 m%)
    tran: time = 87.5 ns     (87.5 %), step = 57.42 ps    (57.4 m%)
    tran: time = 92.5 ns     (92.5 %), step = 125.4 ps     (125 m%)
    tran: time = 97.5 ns     (97.5 %), step = 81.93 ps    (81.9 m%)
Number of accepted tran steps =             11198

Notice from spectre during transient analysis `tran'.
    Trapezoidal ringing is detected during tran analysis.
        Please use method=trap for better results and performance.


Maximum value achieved for any signal of each quantity: 
V: V(net2) = 1.174 V
I: I(_vvdd!:p) = 203.4 uA
If your circuit contains signals of the same quantity that are vastly different in size (such as high voltage circuitry combined with low voltage control circuitry), you should consider specifying global option `bin_relref=yes'.

~~~~~~~~~~~~~~~~~~~~~~~~~~~~~~~~~
Post-Transient Simulation Summary
~~~~~~~~~~~~~~~~~~~~~~~~~~~~~~~~~
   -   To further speed up simulation, consider
          add ++aps on command line
~~~~~~~~~~~~~~~~~~~~~~~~~~~~~~~~~


During simulation, the CPU load for active processors is :
         0 (33.3 %)      2 (23.9 %)      4 (8.8 %)       6 (13.4 %)
         7 (2.9 %)       8 (7.5 %)      10 (3.3 %)      12 (2.6 %)
        13 (1.6 %)      17 (1.3 %)      
        Total: 104.9%
Initial condition solution time: CPU = 2.06 ms, elapsed = 2.06518 ms.
Intrinsic tran analysis time:    CPU = 527.874 ms, elapsed = 531.42 ms.
Total time required for tran analysis `tran': CPU = 530.633 ms, elapsed = 534.183 ms, util. = 99.3%.
Time accumulated: CPU = 892.645 ms, elapsed = 3.21765 s.
Peak resident memory used = 218 Mbytes.


Notice from spectre.
    4115 notices suppressed.

finalTimeOP: writing operating point information to rawfile.

Opening the PSF file ../psf/finalTimeOP.info ...
modelParameter: writing model parameter values to rawfile.

Opening the PSF file ../psf/modelParameter.info ...
element: writing instance parameter values to rawfile.

Opening the PSF file ../psf/element.info ...
outputParameter: writing output parameter values to rawfile.

Opening the PSF file ../psf/outputParameter.info ...
designParamVals: writing netlist parameters to rawfile.

Opening the PSFASCII file ../psf/designParamVals.info ...
primitives: writing primitives to rawfile.

Opening the PSFASCII file ../psf/primitives.info.primitives ...
subckts: writing subcircuits to rawfile.

Opening the PSFASCII file ../psf/subckts.info.subckts ...
Licensing Information:
Lic Summary:
[09:05:09.424850] Cdslmd servers:5280@192.168.0.10
[09:05:09.424859] Feature usage summary:
[09:05:09.424859] Virtuoso_Multi_mode_Simulation


Aggregate audit (9:05:09 AM, Mon Nov 4, 2024):
Time used: CPU = 904 ms, elapsed = 3.24 s, util. = 27.9%.
Time spent in licensing: elapsed = 1.37 s, percentage of total = 42.2%.
Peak memory used = 218 Mbytes.
Simulation started at: 9:05:06 AM, Mon Nov 4, 2024, ended at: 9:05:09 AM, Mon Nov 4, 2024, with elapsed time (wall clock): 3.24 s.
spectre completes with 0 errors, 0 warnings, and 14 notices.


********* LOG ENDS **************
**                             **
