
Spectre (R) Circuit Simulator
Version 23.1.0.594.isr12 64bit -- 13 Sep 2024
Copyright (C) 1989-2024 Cadence Design Systems, Inc. All rights reserved worldwide. Cadence and Spectre are registered trademarks of Cadence Design Systems, Inc. All others are the property of their respective holders.

Includes RSA BSAFE(R) Cryptographic or Security Protocol Software from RSA Security, Inc.

User: cinovador   Host: cinova05.lesc.ufc.br   HostID: A8C0B703   PID: 55861
Memory  available: 25.8244 GB  physical: 33.1098 GB
Linux   : Rocky Linux release 8.10 (Green Obsidian)
CPU Type: 13th Gen Intel(R) Core(TM) i5-13500
        Socket: Processors [Frequency] (Hyperthreaded Processor)
        0:       0 [2500.0] (  1 ),  1 [2500.0] (),  2 [1933.9] (  3 )
                 3 [2500.0] (),  4 [2500.0] (  5 ),  5 [2500.0] (),  6 [2500.0] (  7 )
                 7 [2500.0] (),  8 [2500.0] (  9 ),  9 [2500.0] (), 10 [2500.0] ( 11 )
                11 [2500.0] (), 12 [2500.0] (), 13 [2500.0] (), 14 [2500.0] (), 15 [2500.0] ()
                16 [2500.0] (), 17 [2500.0] (), 18 [2500.0] (), 19 [2500.0] ()
        
System load averages (1min, 5min, 15min) : 0.7 %, 1.1 %, 1.2 %
Hyperthreading is enabled
HPC is enabled


Simulating `input.scs' on cinova05.lesc.ufc.br at 3:20:30 PM, Thur Oct 17, 2024 (process id: 55861).
Current working directory: /home/cinovador/Documents/practice_0/lab1/simulation/lab1/inverter/maestro/results/maestro/ExplorerRun.0/1/lab1_inverter_1/netlist
Command line:
    /home/tools/cadence/installs/SPECTRE231/tools.lnx86/bin/spectre -64  \
        input.scs +escchars +log ../psf/spectre.out -format psfxl -raw  \
        ../psf +aps +mt +lqtimeout 900 -maxw 5 -maxn 5 -env ade  \
        +adespetkn=0001089D13A302B663E41FB550AF0DF415A679A322D5069144BF588C12F604E07EF416DC01A319B562BB63D367CC218545A361E678FB46E060D556E24CC94F925FE279D15D9175FF349861DF1FFE10BC42F961DF4BA444E642F92692369474D30EA879D118F874D3349879D118F874D334981EC04D9621BD53890000365A  \
        -ahdllibdir  \
        /home/cinovador/Documents/practice_0/./lab1/simulation/lab1/inverter/maestro/results/maestro/ExplorerRun.0/sharedData/CDS/ahdl/input.ahdlSimDB  \
        +logstatus

Simulation Id: UVR0LzTM23opDIkz
Licensing Information:
[15:20:30.101209] Configured Lic search path (22.01-s002): 5280@192.168.0.10

Licensing Information:
[15:20:30.115576] Periodic Lic check successful

Loading /home/tools/cadence/installs/SPECTRE231/tools.lnx86/cmi/lib/64bit/5.0/libinfineon_sh.so ...
Loading /home/tools/cadence/installs/SPECTRE231/tools.lnx86/cmi/lib/64bit/5.0/libphilips_I_sh.so ...
Loading /home/tools/cadence/installs/SPECTRE231/tools.lnx86/cmi/lib/64bit/5.0/libphilips_sh.so ...
Loading /home/tools/cadence/installs/SPECTRE231/tools.lnx86/cmi/lib/64bit/5.0/libsparam_sh.so ...
Loading /home/tools/cadence/installs/SPECTRE231/tools.lnx86/cmi/lib/64bit/5.0/libstmodels_sh.so ...
Reading file:  /home/cinovador/Documents/practice_0/lab1/simulation/lab1/inverter/maestro/results/maestro/ExplorerRun.0/1/lab1_inverter_1/netlist/input.scs
Reading file:  /home/tools/cadence/installs/SPECTRE231/tools.lnx86/spectre/etc/configs/spectre.cfg
Reading file:  /home/cinovador/Documents/practice_0/lab1/simulation/lab1/inverter/maestro/results/maestro/ExplorerRun.0/1/lab1_inverter_1/netlist/ade_e.scs
Reading file:  /home/tools/cadence/gpdk/gpdk045_v_6_0/models/spectre/gpdk045.scs
Reading file:  /home/tools/cadence/gpdk/gpdk045_v_6_0/models/spectre/gpdk045_mos.scs
Reading file:  /home/tools/cadence/gpdk/gpdk045_v_6_0/models/spectre/gpdk045_diode.scs
Reading file:  /home/tools/cadence/gpdk/gpdk045_v_6_0/models/spectre/gpdk045_bipolar.scs
Reading file:  /home/tools/cadence/gpdk/gpdk045_v_6_0/models/spectre/gpdk045_mimcap.scs
Reading file:  /home/tools/cadence/gpdk/gpdk045_v_6_0/models/spectre/gpdk045_moscap.scs
Reading file:  /home/tools/cadence/gpdk/gpdk045_v_6_0/models/spectre/gpdk045_resistor.scs
Reading file:  /home/tools/cadence/gpdk/gpdk045_v_6_0/models/spectre/gpdk045_inductor.scs
Reading file:  /home/tools/cadence/gpdk/gpdk045_v_6_0/models/spectre/gpdk045_soa.scs
Reading file:  /home/cinovador/Documents/practice_0/lab1/simulation/lab1/inverter/maestro/results/maestro/ExplorerRun.0/1/lab1_inverter_1/netlist/_graphical_stimuli.scs
Time for NDB Parsing: CPU = 260.077 ms, elapsed = 349.395 ms.
Time accumulated: CPU = 321.491 ms, elapsed = 349.396 ms.
Peak resident memory used = 185 Mbytes.

Reading link:  /home/tools/cadence/installs/SPECTRE231/tools.lnx86/spectre/etc/ahdl/discipline.h
Reading file:  /home/tools/cadence/installs/SPECTRE231/tools.lnx86/spectre/etc/ahdl/disciplines.vams
Reading link:  /home/tools/cadence/installs/SPECTRE231/tools.lnx86/spectre/etc/ahdl/constants.h
Reading file:  /home/tools/cadence/installs/SPECTRE231/tools.lnx86/spectre/etc/ahdl/constants.vams
Created directory /home/cinovador/Documents/practice_0/./lab1/simulation/lab1/inverter/maestro/results/maestro/ExplorerRun.0/sharedData/CDS/ahdl/input.ahdlSimDB/input.ahdlSimDB/ (775)
Created directory /home/cinovador/Documents/practice_0/./lab1/simulation/lab1/inverter/maestro/results/maestro/ExplorerRun.0/sharedData/CDS/ahdl/input.ahdlSimDB/input.ahdlSimDB//bsource_2b273e.va.bsource_2b273e.ahdlcmi/ (775)
Created directory /home/cinovador/Documents/practice_0/./lab1/simulation/lab1/inverter/maestro/results/maestro/ExplorerRun.0/sharedData/CDS/ahdl/input.ahdlSimDB/input.ahdlSimDB//bsource_2b273e.va.bsource_2b273e.ahdlcmi/Linux-64/ (775)
Compiling ahdlcmi module library for bsource_2b273e.
Finished compilation in 476 ms (elapsed) for bsource_2b273e.
Installed compiled interface for bsource_2b273e.
Time for Elaboration: CPU = 32.128 ms, elapsed = 517.442 ms.
Time accumulated: CPU = 353.669 ms, elapsed = 866.889 ms.
Peak resident memory used = 206 Mbytes.


Notice from spectre during hierarchy flattening.
    The value 'psf' specified for the 'checklimitdest' option will no longer be supported in future releases. Use 'spectre -h' to see other recommended values for the 'checklimitdest' option.

 Start ADE Session ID: UVR0LzTM23opDIkz

Time for EDB Visiting: CPU = 546 us, elapsed = 548.84 us.
Time accumulated: CPU = 354.27 ms, elapsed = 867.492 ms.
Peak resident memory used = 207 Mbytes.


Notice from spectre during initial setup.
    Multithreading is disabled due to the size of the design being too small.

Netlist title:
        // Point Netlist Generated on: Oct 17 15:20:25 2024


Global user options:
         psfversion = 1.4.0
            vabstol = 1e-06
            iabstol = 1e-12
               temp = 27
               gmin = 1e-12
             rforce = 1
           maxnotes = 5
           maxwarns = 5
             digits = 5
               cols = 80
             pivrel = 0.001
           sensfile = ../psf/sens.output
     checklimitdest = psf
               save = allpub
             reltol = 0.001
               tnom = 27
             scalem = 1
              scale = 1

Scoped user options:

Circuit inventory:
              nodes 5
              bsim4 2     
     bsource_2b273e 2     
            vsource 2     

Analysis and control statement inventory:
               info 7     
               tran 1     

Output statements:
             .probe 0     
           .measure 0     
               save 1     

Design checks inventory:
          paramtest 1     


Notice from spectre during initial setup.
    Protected devices exist and are not included in the circuit inventory.
    APS enabled.

Time for parsing: CPU = 1.231 ms, elapsed = 5.60308 ms.
Time accumulated: CPU = 355.537 ms, elapsed = 873.13 ms.
Peak resident memory used = 207 Mbytes.

~~~~~~~~~~~~~~~~~~~~~~
Pre-Simulation Summary
~~~~~~~~~~~~~~~~~~~~~~
   -   (APS) Multi-threading. The recommended number of threads is 1, consider adding +mt=1 on command line.
~~~~~~~~~~~~~~~~~~~~~~

***********************************************
Transient Analysis `tran': time = (0 s -> 4 ns)
***********************************************
DC simulation time: CPU = 192 us, elapsed = 190.973 us.

Opening the PSFXL file ../psf/tran.tran.tran ...
Important parameter values:
    start = 0 s
    outputstart = 0 s
    stop = 4 ns
    step = 4 ps
    maxstep = 80 ps
    ic = all
    useprevic = no
    skipdc = no
    reltol = 1e-03
    abstol(V) = 1 uV
    abstol(I) = 1 pA
    temp = 27 C
    tnom = 27 C
    tempeffects = all
    errpreset = moderate
    method = traponly
    lteratio = 3.5
    relref = sigglobal
    cmin = 0 F
    gmin = 1 pS
    rabsshort = 1 mOhm


Notice from spectre during transient analysis `tran'.
    Multithreading is disabled due to the size of the design being too small.


Output and IC/nodeset summary:
                 save   2       (current)
                 save   5       (voltage)


Notice from spectre at time = 57.3241 ps during transient analysis `tran'.
    Found trapezoidal ringing on node _vin:p.
Notice from spectre at time = 93.5101 ps during transient analysis `tran'.
    Found trapezoidal ringing on node _vin:p.
Notice from spectre at time = 159.064 ps during transient analysis `tran'.
    Found trapezoidal ringing on node _vin:p.

    tran: time = 159.1 ps    (3.98 %), step = 65.55 ps     (1.64 %)

Notice from spectre at time = 239.064 ps during transient analysis `tran'.
    Found trapezoidal ringing on node _vin:p.
Notice from spectre at time = 319.064 ps during transient analysis `tran'.
    Found trapezoidal ringing on node _vin:p.
        Further occurrences of this notice will be suppressed.

    tran: time = 319.1 ps    (7.98 %), step = 80 ps           (2 %)
    tran: time = 559.1 ps      (14 %), step = 80 ps           (2 %)
    tran: time = 719.1 ps      (18 %), step = 80 ps           (2 %)
    tran: time = 944.5 ps    (23.6 %), step = 65.47 ps     (1.64 %)
    tran: time = 1.141 ns    (28.5 %), step = 51.58 ps     (1.29 %)
    tran: time = 1.301 ns    (32.5 %), step = 80 ps           (2 %)
    tran: time = 1.541 ns    (38.5 %), step = 80 ps           (2 %)
    tran: time = 1.701 ns    (42.5 %), step = 80 ps           (2 %)
    tran: time = 1.941 ns    (48.5 %), step = 80 ps           (2 %)
    tran: time = 2.119 ns      (53 %), step = 48.99 ps     (1.22 %)
    tran: time = 2.359 ns      (59 %), step = 80 ps           (2 %)
    tran: time = 2.519 ns      (63 %), step = 80 ps           (2 %)
    tran: time = 2.759 ns      (69 %), step = 80 ps           (2 %)
    tran: time = 2.919 ns      (73 %), step = 80 ps           (2 %)
    tran: time = 3.101 ns    (77.5 %), step = 32.09 ps     (802 m%)
    tran: time = 3.325 ns    (83.1 %), step = 80 ps           (2 %)
    tran: time = 3.565 ns    (89.1 %), step = 80 ps           (2 %)
    tran: time = 3.725 ns    (93.1 %), step = 80 ps           (2 %)
    tran: time = 3.942 ns    (98.6 %), step = 57.52 ps     (1.44 %)
Number of accepted tran steps =             212

Notice from spectre during transient analysis `tran'.
    Trapezoidal ringing is detected during tran analysis.
        Please use method=trap for better results and performance.


Maximum value achieved for any signal of each quantity: 
V: V(out) = 1.116 V
I: I(_vvdd!:p) = 30.91 uA
If your circuit contains signals of the same quantity that are vastly different in size (such as high voltage circuitry combined with low voltage control circuitry), you should consider specifying global option `bin_relref=yes'.

~~~~~~~~~~~~~~~~~~~~~~~~~~~~~~~~~
Post-Transient Simulation Summary
~~~~~~~~~~~~~~~~~~~~~~~~~~~~~~~~~
   -   To further speed up simulation, consider
          add ++aps on command line
~~~~~~~~~~~~~~~~~~~~~~~~~~~~~~~~~


During simulation, the CPU load for active processors is :
         0 (54.7 %)      1 (1.2 %)       2 (46.0 %)      3 (1.2 %)
         4 (16.7 %)      5 (1.2 %)       6 (12.9 %)      7 (2.3 %)
         8 (17.0 %)      9 (2.4 %)      10 (15.1 %)     11 (1.2 %)
        12 (10.5 %)     13 (8.1 %)      14 (5.9 %)      15 (8.1 %)
        16 (3.4 %)      17 (3.4 %)      18 (4.6 %)      19 (1.2 %)
        Total: 217.0%
Initial condition solution time: CPU = 209 us, elapsed = 209.093 us.
Intrinsic tran analysis time:    CPU = 5.363 ms, elapsed = 8.27503 ms.
Total time required for tran analysis `tran': CPU = 6.24 ms, elapsed = 9.14907 ms, util. = 68.2%.
Time accumulated: CPU = 365.886 ms, elapsed = 887.023 ms.
Peak resident memory used = 214 Mbytes.


Notice from spectre.
    53 notices suppressed.

finalTimeOP: writing operating point information to rawfile.

Opening the PSF file ../psf/finalTimeOP.info ...
modelParameter: writing model parameter values to rawfile.

Opening the PSF file ../psf/modelParameter.info ...
element: writing instance parameter values to rawfile.

Opening the PSF file ../psf/element.info ...
outputParameter: writing output parameter values to rawfile.

Opening the PSF file ../psf/outputParameter.info ...
designParamVals: writing netlist parameters to rawfile.

Opening the PSFASCII file ../psf/designParamVals.info ...
primitives: writing primitives to rawfile.

Opening the PSFASCII file ../psf/primitives.info.primitives ...
subckts: writing subcircuits to rawfile.

Opening the PSFASCII file ../psf/subckts.info.subckts ...
Licensing Information:
Lic Summary:
[15:20:31.489315] Cdslmd servers:5280@192.168.0.10
[15:20:31.489323] Feature usage summary:
[15:20:31.489323] Virtuoso_Multi_mode_Simulation


Aggregate audit (3:20:31 PM, Thur Oct 17, 2024):
Time used: CPU = 377 ms, elapsed = 913 ms, util. = 41.3%.
Time spent in licensing: elapsed = 15.3 ms.
Peak memory used = 215 Mbytes.
Simulation started at: 3:20:30 PM, Thur Oct 17, 2024, ended at: 3:20:31 PM, Thur Oct 17, 2024, with elapsed time (wall clock): 913 ms.
spectre completes with 0 errors, 0 warnings, and 13 notices.


********* LOG ENDS **************
**                             **
