
Spectre (R) Circuit Simulator
Version 23.1.0.594.isr12 64bit -- 13 Sep 2024
Copyright (C) 1989-2024 Cadence Design Systems, Inc. All rights reserved worldwide. Cadence and Spectre are registered trademarks of Cadence Design Systems, Inc. All others are the property of their respective holders.

Includes RSA BSAFE(R) Cryptographic or Security Protocol Software from RSA Security, Inc.

User: cinovador   Host: cinova05.lesc.ufc.br   HostID: A8C0050F   PID: 117114
Memory  available: 21.9833 GB  physical: 33.1098 GB
Linux   : Rocky Linux release 8.10 (Green Obsidian)
CPU Type: 13th Gen Intel(R) Core(TM) i5-13500
        Socket: Processors [Frequency] (Hyperthreaded Processor)
        0:       0 [2500.0] (  1 ),  1 [2500.0] (),  2 [2500.0] (  3 )
                 3 [2500.0] (),  4 [2500.0] (  5 ),  5 [2500.0] (),  6 [2500.0] (  7 )
                 7 [2500.0] (),  8 [2174.4] (  9 ),  9 [2500.0] (), 10 [4281.8] ( 11 )
                11 [2500.0] (), 12 [2500.0] (), 13 [2500.0] (), 14 [2500.0] (), 15 [2500.0] ()
                16 [2500.0] (), 17 [2500.0] (), 18 [2500.0] (), 19 [2500.0] ()
        
System load averages (1min, 5min, 15min) : 0.9 %, 1.2 %, 1.4 %
Hyperthreading is enabled
HPC is enabled


Simulating `input.scs' on cinova05.lesc.ufc.br at 5:28:21 PM, Thur Oct 31, 2024 (process id: 117114).
Current working directory: /home/cinovador/Documents/course_files/digital_logic/practice_2/logic_gates/nor_gate/maestro/logic_gates/nand_gate/maestro/results/maestro/ExplorerRun.0/1/logic_gates_nand_gate_1/netlist
Command line:
    /home/tools/cadence/installs/SPECTRE231/tools.lnx86/bin/spectre -64  \
        input.scs +escchars +log ../psf/spectre.out -format psfxl -raw  \
        ../psf +aps +mt +lqtimeout 900 -maxw 5 -maxn 5 -env ade  \
        +adespetkn=0001089D13A302B663E41FB550AF0DF415A679A322D5069144BF588C12F604E07EF416DC01A319B562BB63D37CAC3AE545A328D639FC30E707FD09C9738F4F9202F579D15D9175FF349861DF1FFE10BC42F961DF4BA444E642F92692369474D30EA879D118F874D3349879D118F874D334981EF2F09C9CB753BB000036A7  \
        -ahdllibdir  \
        /home/cinovador/Documents/course_files/digital_logic/practice_2/./logic_gates/nor_gate/maestro/logic_gates/nand_gate/maestro/results/maestro/ExplorerRun.0/sharedData/CDS/ahdl/input.ahdlSimDB  \
        +logstatus

Simulation Id: N6e0bb3eD4P6Fu6m
Licensing Information:
[17:28:22.101297] Configured Lic search path (22.01-s002): 5280@192.168.0.10

Licensing Information:
[17:28:24.057721] Periodic Lic check successful

Loading /home/tools/cadence/installs/SPECTRE231/tools.lnx86/cmi/lib/64bit/5.0/libinfineon_sh.so ...
Loading /home/tools/cadence/installs/SPECTRE231/tools.lnx86/cmi/lib/64bit/5.0/libphilips_I_sh.so ...
Loading /home/tools/cadence/installs/SPECTRE231/tools.lnx86/cmi/lib/64bit/5.0/libphilips_sh.so ...
Loading /home/tools/cadence/installs/SPECTRE231/tools.lnx86/cmi/lib/64bit/5.0/libsparam_sh.so ...
Loading /home/tools/cadence/installs/SPECTRE231/tools.lnx86/cmi/lib/64bit/5.0/libstmodels_sh.so ...
Reading file:  /home/cinovador/Documents/course_files/digital_logic/practice_2/logic_gates/nor_gate/maestro/logic_gates/nand_gate/maestro/results/maestro/ExplorerRun.0/1/logic_gates_nand_gate_1/netlist/input.scs
Reading file:  /home/tools/cadence/installs/SPECTRE231/tools.lnx86/spectre/etc/configs/spectre.cfg
Reading file:  /home/cinovador/Documents/course_files/digital_logic/practice_2/logic_gates/nor_gate/maestro/logic_gates/nand_gate/maestro/results/maestro/ExplorerRun.0/1/logic_gates_nand_gate_1/netlist/ade_e.scs
Reading file:  /home/tools/cadence/gpdk/gpdk045_v_6_0/models/spectre/gpdk045.scs
Reading file:  /home/tools/cadence/gpdk/gpdk045_v_6_0/models/spectre/gpdk045_mos.scs
Reading file:  /home/tools/cadence/gpdk/gpdk045_v_6_0/models/spectre/gpdk045_diode.scs
Reading file:  /home/tools/cadence/gpdk/gpdk045_v_6_0/models/spectre/gpdk045_bipolar.scs
Reading file:  /home/tools/cadence/gpdk/gpdk045_v_6_0/models/spectre/gpdk045_mimcap.scs
Reading file:  /home/tools/cadence/gpdk/gpdk045_v_6_0/models/spectre/gpdk045_moscap.scs
Reading file:  /home/tools/cadence/gpdk/gpdk045_v_6_0/models/spectre/gpdk045_resistor.scs
Reading file:  /home/tools/cadence/gpdk/gpdk045_v_6_0/models/spectre/gpdk045_inductor.scs
Reading file:  /home/tools/cadence/gpdk/gpdk045_v_6_0/models/spectre/gpdk045_soa.scs
Reading file:  /home/cinovador/Documents/course_files/digital_logic/practice_2/logic_gates/nor_gate/maestro/logic_gates/nand_gate/maestro/results/maestro/ExplorerRun.0/1/logic_gates_nand_gate_1/netlist/_graphical_stimuli.scs
Time for NDB Parsing: CPU = 256.245 ms, elapsed = 2.48922 s.
Time accumulated: CPU = 293.89 ms, elapsed = 2.48922 s.
Peak resident memory used = 188 Mbytes.

Reading link:  /home/tools/cadence/installs/SPECTRE231/tools.lnx86/spectre/etc/ahdl/discipline.h
Reading file:  /home/tools/cadence/installs/SPECTRE231/tools.lnx86/spectre/etc/ahdl/disciplines.vams
Reading link:  /home/tools/cadence/installs/SPECTRE231/tools.lnx86/spectre/etc/ahdl/constants.h
Reading file:  /home/tools/cadence/installs/SPECTRE231/tools.lnx86/spectre/etc/ahdl/constants.vams
Created directory /home/cinovador/Documents/course_files/digital_logic/practice_2/./logic_gates/nor_gate/maestro/logic_gates/nand_gate/maestro/results/maestro/ExplorerRun.0/sharedData/CDS/ahdl/input.ahdlSimDB/input.ahdlSimDB/ (775)
Created directory /home/cinovador/Documents/course_files/digital_logic/practice_2/./logic_gates/nor_gate/maestro/logic_gates/nand_gate/maestro/results/maestro/ExplorerRun.0/sharedData/CDS/ahdl/input.ahdlSimDB/input.ahdlSimDB//bsource_2b273e.va.bsource_2b273e.ahdlcmi/ (775)
Reading file:  /home/cinovador/Documents/course_files/practice_0/lab1_part2/fanout-1/fanout-tests/inverter/maestro/results/maestro/ExplorerRun.0/sharedData/CDS/ahdl/input.ahdlSimDB/input.ahdlSimDB/bsource_2b273e.va.bsource_2b273e.ahdlcmi/Linux-64/obj/optimize/5.0/libahdlcmi_bsource_2b273e.so
Created directory /home/cinovador/Documents/course_files/digital_logic/practice_2/./logic_gates/nor_gate/maestro/logic_gates/nand_gate/maestro/results/maestro/ExplorerRun.0/sharedData/CDS/ahdl/input.ahdlSimDB/input.ahdlSimDB//bsource_2b273e.va.bsource_2b273e.ahdlcmi/Linux-64/obj/optimize/5.0 
Copying files from directory /home/cinovador/Documents/course_files/practice_0/lab1_part2/fanout-1/fanout-tests/inverter/maestro/results/maestro/ExplorerRun.0/sharedData/CDS/ahdl/input.ahdlSimDB/input.ahdlSimDB/bsource_2b273e.va.bsource_2b273e.ahdlcmi/Linux-64/ to directory /home/cinovador/Documents/course_files/digital_logic/practice_2/./logic_gates/nor_gate/maestro/logic_gates/nand_gate/maestro/results/maestro/ExplorerRun.0/sharedData/CDS/ahdl/input.ahdlSimDB/input.ahdlSimDB//bsource_2b273e.va.bsource_2b273e.ahdlcmi/Linux-64/
Finished copying files from /home/cinovador/Documents/course_files/practice_0/lab1_part2/fanout-1/fanout-tests/inverter/maestro/results/maestro/ExplorerRun.0/sharedData/CDS/ahdl/input.ahdlSimDB/input.ahdlSimDB/bsource_2b273e.va.bsource_2b273e.ahdlcmi/Linux-64/ to /home/cinovador/Documents/course_files/digital_logic/practice_2/./logic_gates/nor_gate/maestro/logic_gates/nand_gate/maestro/results/maestro/ExplorerRun.0/sharedData/CDS/ahdl/input.ahdlSimDB/input.ahdlSimDB//bsource_2b273e.va.bsource_2b273e.ahdlcmi/Linux-64/.
The simulator has reused the existing Verilog-A libraries for this simulation run. If you do not want to use these libraries, set the 'CDS_AHDL_REUSE_LIB' environment variable to 'NO' and rerun the simulation.
Existing shared object for module bsource_2b273e is up to date.
Installed compiled interface for bsource_2b273e.
Time for Elaboration: CPU = 17.124 ms, elapsed = 22.1598 ms.
Time accumulated: CPU = 311.07 ms, elapsed = 2.51143 s.
Peak resident memory used = 204 Mbytes.


Notice from spectre during hierarchy flattening.
    The value 'psf' specified for the 'checklimitdest' option will no longer be supported in future releases. Use 'spectre -h' to see other recommended values for the 'checklimitdest' option.

 Start ADE Session ID: N6e0bb3eD4P6Fu6m

Time for EDB Visiting: CPU = 511 us, elapsed = 511.885 us.
Time accumulated: CPU = 311.626 ms, elapsed = 2.51199 s.
Peak resident memory used = 205 Mbytes.


Notice from spectre during initial setup.
    Multithreading is disabled due to the size of the design being too small.

Netlist title:
        // Point Netlist Generated on: Oct 31 17:28:15 2024


Global user options:
         psfversion = 1.4.0
            vabstol = 1e-06
            iabstol = 1e-12
               temp = 27
               gmin = 1e-12
             rforce = 1
           maxnotes = 5
           maxwarns = 5
             digits = 5
               cols = 80
             pivrel = 0.001
           sensfile = ../psf/sens.output
     checklimitdest = psf
               save = allpub
             reltol = 0.001
               tnom = 27
             scalem = 1
              scale = 1

Scoped user options:

Circuit inventory:
              nodes 9
              bsim4 4     
     bsource_2b273e 4     
          capacitor 1     
            vsource 3     

Analysis and control statement inventory:
               info 7     
               tran 1     

Output statements:
             .probe 0     
           .measure 0     
               save 0     

Design checks inventory:
          paramtest 1     


Notice from spectre during initial setup.
    Protected devices exist and are not included in the circuit inventory.
    APS enabled.

Time for parsing: CPU = 1.481 ms, elapsed = 133.942 ms.
Time accumulated: CPU = 313.138 ms, elapsed = 2.64596 s.
Peak resident memory used = 205 Mbytes.

~~~~~~~~~~~~~~~~~~~~~~
Pre-Simulation Summary
~~~~~~~~~~~~~~~~~~~~~~
   -   (APS) Multi-threading. The recommended number of threads is 1, consider adding +mt=1 on command line.
~~~~~~~~~~~~~~~~~~~~~~

*************************************************
Transient Analysis `tran': time = (0 s -> 100 ns)
*************************************************

Notice from spectre during IC analysis, during transient analysis `tran'.
    GminDC = 1 pS is large enough to noticeably affect the DC solution.
        dV(net1) = 58.7645 mV
        Use the `gmin_check' option to eliminate or expand this report.

DC simulation time: CPU = 248 us, elapsed = 249.147 us.

Opening the PSFXL file ../psf/tran.tran.tran ...
Important parameter values:
    start = 0 s
    outputstart = 0 s
    stop = 100 ns
    step = 100 ps
    maxstep = 2 ns
    ic = all
    useprevic = no
    skipdc = no
    reltol = 1e-03
    abstol(V) = 1 uV
    abstol(I) = 1 pA
    temp = 27 C
    tnom = 27 C
    tempeffects = all
    errpreset = moderate
    method = traponly
    lteratio = 3.5
    relref = sigglobal
    cmin = 0 F
    gmin = 1 pS
    rabsshort = 1 mOhm


Notice from spectre during transient analysis `tran'.
    Multithreading is disabled due to the size of the design being too small.


Output and IC/nodeset summary:
                 save   3       (current)
                 save   9       (voltage)


Notice from spectre at time = 2.38155 ps during transient analysis `tran'.
    Found trapezoidal ringing on node NM3.n1.
Notice from spectre at time = 2.54043 ps during transient analysis `tran'.
    Found trapezoidal ringing on node NM3.n1.
Notice from spectre at time = 2.76459 ps during transient analysis `tran'.
    Found trapezoidal ringing on node NM3.n1.
Notice from spectre at time = 2.87027 ps during transient analysis `tran'.
    Found trapezoidal ringing on node NM3.n1.
Notice from spectre at time = 3.08165 ps during transient analysis `tran'.
    Found trapezoidal ringing on node NM3.n1.
        Further occurrences of this notice will be suppressed.

    tran: time = 2.538 ns    (2.54 %), step = 133.4 ps     (133 m%)
    tran: time = 7.665 ns    (7.66 %), step = 178.8 ps     (179 m%)
    tran: time = 12.54 ns    (12.5 %), step = 48.25 ps    (48.2 m%)
    tran: time = 17.52 ns    (17.5 %), step = 67.89 ps    (67.9 m%)
    tran: time = 22.54 ns    (22.5 %), step = 133.4 ps     (133 m%)
    tran: time = 27.66 ns    (27.7 %), step = 178.8 ps     (179 m%)
    tran: time = 32.54 ns    (32.5 %), step = 48.25 ps    (48.2 m%)
    tran: time = 37.52 ns    (37.5 %), step = 67.89 ps    (67.9 m%)
    tran: time = 42.54 ns    (42.5 %), step = 133.4 ps     (133 m%)
    tran: time = 47.66 ns    (47.7 %), step = 178.8 ps     (179 m%)
    tran: time = 52.54 ns    (52.5 %), step = 48.25 ps    (48.2 m%)
    tran: time = 57.52 ns    (57.5 %), step = 67.89 ps    (67.9 m%)
    tran: time = 62.54 ns    (62.5 %), step = 133.4 ps     (133 m%)
    tran: time = 67.66 ns    (67.7 %), step = 178.8 ps     (179 m%)
    tran: time = 72.54 ns    (72.5 %), step = 48.25 ps    (48.2 m%)
    tran: time = 77.52 ns    (77.5 %), step = 67.89 ps    (67.9 m%)
    tran: time = 82.54 ns    (82.5 %), step = 133.4 ps     (133 m%)
    tran: time = 87.66 ns    (87.7 %), step = 178.8 ps     (179 m%)
    tran: time = 92.54 ns    (92.5 %), step = 48.25 ps    (48.2 m%)
    tran: time = 97.52 ns    (97.5 %), step = 67.89 ps    (67.9 m%)
Number of accepted tran steps =             5897

Notice from spectre during transient analysis `tran'.
    Trapezoidal ringing is detected during tran analysis.
        Please use method=trap for better results and performance.


Maximum value achieved for any signal of each quantity: 
V: V(out) = 1.01 V
I: I(V0:p) = 198 uA
If your circuit contains signals of the same quantity that are vastly different in size (such as high voltage circuitry combined with low voltage control circuitry), you should consider specifying global option `bin_relref=yes'.

~~~~~~~~~~~~~~~~~~~~~~~~~~~~~~~~~
Post-Transient Simulation Summary
~~~~~~~~~~~~~~~~~~~~~~~~~~~~~~~~~
   -   To further speed up simulation, consider
          add ++aps on command line
~~~~~~~~~~~~~~~~~~~~~~~~~~~~~~~~~


During simulation, the CPU load for active processors is :
         0 (16.4 %)      2 (6.0 %)       4 (16.4 %)      6 (4.9 %)
         8 (5.2 %)      10 (26.9 %)     11 (3.7 %)      12 (1.9 %)
        13 (1.1 %)      15 (1.1 %)      16 (1.1 %)      
        Total: 87.3%
Initial condition solution time: CPU = 261 us, elapsed = 261.068 us.
Intrinsic tran analysis time:    CPU = 184.921 ms, elapsed = 187.357 ms.
Total time required for tran analysis `tran': CPU = 185.866 ms, elapsed = 188.303 ms, util. = 98.7%.
Time accumulated: CPU = 503.229 ms, elapsed = 2.83972 s.
Peak resident memory used = 216 Mbytes.


Notice from spectre.
    2813 notices suppressed.

finalTimeOP: writing operating point information to rawfile.

Opening the PSF file ../psf/finalTimeOP.info ...
modelParameter: writing model parameter values to rawfile.

Opening the PSF file ../psf/modelParameter.info ...
element: writing instance parameter values to rawfile.

Opening the PSF file ../psf/element.info ...
outputParameter: writing output parameter values to rawfile.

Opening the PSF file ../psf/outputParameter.info ...
designParamVals: writing netlist parameters to rawfile.

Opening the PSFASCII file ../psf/designParamVals.info ...
primitives: writing primitives to rawfile.

Opening the PSFASCII file ../psf/primitives.info.primitives ...
subckts: writing subcircuits to rawfile.

Opening the PSFASCII file ../psf/subckts.info.subckts ...
Licensing Information:
Lic Summary:
[17:28:24.270864] Cdslmd servers:5280@192.168.0.10
[17:28:24.270872] Feature usage summary:
[17:28:24.270873] Virtuoso_Multi_mode_Simulation


Aggregate audit (5:28:24 PM, Thur Oct 31, 2024):
Time used: CPU = 514 ms, elapsed = 2.86 s, util. = 18%.
Time spent in licensing: elapsed = 1.43 s, percentage of total = 49.9%.
Peak memory used = 218 Mbytes.
Simulation started at: 5:28:21 PM, Thur Oct 31, 2024, ended at: 5:28:24 PM, Thur Oct 31, 2024, with elapsed time (wall clock): 2.86 s.
spectre completes with 0 errors, 0 warnings, and 14 notices.
