
Spectre (R) Circuit Simulator
Version 23.1.0.594.isr12 64bit -- 13 Sep 2024
Copyright (C) 1989-2024 Cadence Design Systems, Inc. All rights reserved worldwide. Cadence and Spectre are registered trademarks of Cadence Design Systems, Inc. All others are the property of their respective holders.

Includes RSA BSAFE(R) Cryptographic or Security Protocol Software from RSA Security, Inc.

User: cinovador   Host: cinova05.lesc.ufc.br   HostID: A8C0050F   PID: 75723
Memory  available: 23.8486 GB  physical: 33.1098 GB
Linux   : Rocky Linux release 8.10 (Green Obsidian)
CPU Type: 13th Gen Intel(R) Core(TM) i5-13500
        Socket: Processors [Frequency] (Hyperthreaded Processor)
        0:       0 [913.7] (  1 ),  1 [2500.0] (),  2 [2500.0] (  3 )
                 3 [2500.0] (),  4 [2500.0] (  5 ),  5 [2500.0] (),  6 [2500.0] (  7 )
                 7 [2500.0] (),  8 [2500.0] (  9 ),  9 [2500.0] (), 10 [2500.0] ( 11 )
                11 [2500.0] (), 12 [2500.0] (), 13 [2575.2] (), 14 [2500.0] (), 15 [2500.0] ()
                16 [2500.0] (), 17 [2500.0] (), 18 [2500.0] (), 19 [2500.0] ()
        
System load averages (1min, 5min, 15min) : 1.4 %, 1.7 %, 2.0 %
Hyperthreading is enabled
HPC is enabled


Simulating `input.scs' on cinova05.lesc.ufc.br at 3:49:23 PM, Thur Oct 24, 2024 (process id: 75723).
Current working directory: /home/cinovador/Documents/course_files/practice_0/lab1_part2/fanout-tests-question-2/fanout-tests/fanout-question-4/fanout-tests/fanout-question-4/maestro/results/maestro/ExplorerRun.0/1/fanout-tests_fanout-question-4_1/netlist
Command line:
    /home/tools/cadence/installs/SPECTRE231/tools.lnx86/bin/spectre -64  \
        input.scs +escchars +log ../psf/spectre.out -format psfxl -raw  \
        ../psf +aps +mt +lqtimeout 900 -maxw 5 -maxn 5 -env ade  \
        +adespetkn=0001089D13A302B663E41FB550AF0DF415A679A322D5069144BF588C12F604E07EF416DC01A319B562BB63D364CB228245A325C635BC1DE306DC60F453D64F9245F779D15D9175FF349861DF1FFE10BC42F961DF4BA444E642F92692369474D30EA879D118F874D3349879D118F874D334981ECB8E52E27953820000364B  \
        -ahdllibdir  \
        /home/cinovador/Documents/course_files/practice_0/lab1_part2/fanout-tests-question-2/fanout-tests/fanout-question-4/fanout-tests/fanout-question-4/maestro/results/maestro/ExplorerRun.0/sharedData/CDS/ahdl/input.ahdlSimDB  \
        +logstatus

Simulation Id: VQDtnS2Di0pohJqo
Licensing Information:
[15:49:24.101321] Configured Lic search path (22.01-s002): 5280@192.168.0.10

Licensing Information:
[15:49:25.416170] Periodic Lic check successful

Loading /home/tools/cadence/installs/SPECTRE231/tools.lnx86/cmi/lib/64bit/5.0/libinfineon_sh.so ...
Loading /home/tools/cadence/installs/SPECTRE231/tools.lnx86/cmi/lib/64bit/5.0/libphilips_I_sh.so ...
Loading /home/tools/cadence/installs/SPECTRE231/tools.lnx86/cmi/lib/64bit/5.0/libphilips_sh.so ...
Loading /home/tools/cadence/installs/SPECTRE231/tools.lnx86/cmi/lib/64bit/5.0/libsparam_sh.so ...
Loading /home/tools/cadence/installs/SPECTRE231/tools.lnx86/cmi/lib/64bit/5.0/libstmodels_sh.so ...
Reading file:  /home/cinovador/Documents/course_files/practice_0/lab1_part2/fanout-tests-question-2/fanout-tests/fanout-question-4/fanout-tests/fanout-question-4/maestro/results/maestro/ExplorerRun.0/1/fanout-tests_fanout-question-4_1/netlist/input.scs
Reading file:  /home/tools/cadence/installs/SPECTRE231/tools.lnx86/spectre/etc/configs/spectre.cfg
Reading file:  /home/cinovador/Documents/course_files/practice_0/lab1_part2/fanout-tests-question-2/fanout-tests/fanout-question-4/fanout-tests/fanout-question-4/maestro/results/maestro/ExplorerRun.0/1/fanout-tests_fanout-question-4_1/netlist/ade_e.scs
Reading file:  /home/tools/cadence/gpdk/gpdk045_v_6_0/models/spectre/gpdk045.scs
Reading file:  /home/tools/cadence/gpdk/gpdk045_v_6_0/models/spectre/gpdk045_mos.scs
Reading file:  /home/tools/cadence/gpdk/gpdk045_v_6_0/models/spectre/gpdk045_diode.scs
Reading file:  /home/tools/cadence/gpdk/gpdk045_v_6_0/models/spectre/gpdk045_bipolar.scs
Reading file:  /home/tools/cadence/gpdk/gpdk045_v_6_0/models/spectre/gpdk045_mimcap.scs
Reading file:  /home/tools/cadence/gpdk/gpdk045_v_6_0/models/spectre/gpdk045_moscap.scs
Reading file:  /home/tools/cadence/gpdk/gpdk045_v_6_0/models/spectre/gpdk045_resistor.scs
Reading file:  /home/tools/cadence/gpdk/gpdk045_v_6_0/models/spectre/gpdk045_inductor.scs
Reading file:  /home/tools/cadence/gpdk/gpdk045_v_6_0/models/spectre/gpdk045_soa.scs
Reading file:  /home/cinovador/Documents/course_files/practice_0/lab1_part2/fanout-tests-question-2/fanout-tests/fanout-question-4/fanout-tests/fanout-question-4/maestro/results/maestro/ExplorerRun.0/1/fanout-tests_fanout-question-4_1/netlist/_graphical_stimuli.scs
Time for NDB Parsing: CPU = 253.8 ms, elapsed = 1.75462 s.
Time accumulated: CPU = 291.125 ms, elapsed = 1.75462 s.
Peak resident memory used = 188 Mbytes.

Reading link:  /home/tools/cadence/installs/SPECTRE231/tools.lnx86/spectre/etc/ahdl/discipline.h
Reading file:  /home/tools/cadence/installs/SPECTRE231/tools.lnx86/spectre/etc/ahdl/disciplines.vams
Reading link:  /home/tools/cadence/installs/SPECTRE231/tools.lnx86/spectre/etc/ahdl/constants.h
Reading file:  /home/tools/cadence/installs/SPECTRE231/tools.lnx86/spectre/etc/ahdl/constants.vams
Existing shared object for module bsource_2b273e is up to date.
Installed compiled interface for bsource_2b273e.
Time for Elaboration: CPU = 10.296 ms, elapsed = 10.2682 ms.
Time accumulated: CPU = 301.466 ms, elapsed = 1.76494 s.
Peak resident memory used = 200 Mbytes.


Notice from spectre during hierarchy flattening.
    The value 'psf' specified for the 'checklimitdest' option will no longer be supported in future releases. Use 'spectre -h' to see other recommended values for the 'checklimitdest' option.

 Start ADE Session ID: VQDtnS2Di0pohJqo

Time for EDB Visiting: CPU = 374 us, elapsed = 374.079 us.
Time accumulated: CPU = 301.891 ms, elapsed = 1.76536 s.
Peak resident memory used = 200 Mbytes.


Notice from spectre during initial setup.
    Multithreading is disabled due to the size of the design being too small.

Netlist title:
        // Point Netlist Generated on: Oct 24 15:49:13 2024


Global user options:
         psfversion = 1.4.0
            vabstol = 1e-06
            iabstol = 1e-12
               temp = 27
               gmin = 1e-12
             rforce = 1
           maxnotes = 5
           maxwarns = 5
             digits = 5
               cols = 80
             pivrel = 0.001
           sensfile = ../psf/sens.output
     checklimitdest = psf
               save = allpub
             reltol = 0.001
               tnom = 27
             scalem = 1
              scale = 1

Scoped user options:

Circuit inventory:
              nodes 5
              bsim4 2     
     bsource_2b273e 2     
            vsource 2     

Analysis and control statement inventory:
                 dc 1     
               info 6     

Output statements:
             .probe 0     
           .measure 0     
               save 1     

Design checks inventory:
          paramtest 1     


Notice from spectre during initial setup.
    Protected devices exist and are not included in the circuit inventory.
    APS enabled.

Time for parsing: CPU = 1.386 ms, elapsed = 89.828 ms.
Time accumulated: CPU = 303.312 ms, elapsed = 1.85522 s.
Peak resident memory used = 204 Mbytes.

~~~~~~~~~~~~~~~~~~~~~~
Pre-Simulation Summary
~~~~~~~~~~~~~~~~~~~~~~
   -   (APS) Multi-threading. The recommended number of threads is 1, consider adding +mt=1 on command line.
~~~~~~~~~~~~~~~~~~~~~~

**************************************
DC Analysis `dc': v0:dc = (0 V -> 1 V)
**************************************

Opening the PSF file ../psf/dc.dc ...
Important parameter values:
    reltol = 1e-03
    abstol(V) = 1 uV
    abstol(I) = 1 pA
    temp = 27 C
    tnom = 27 C
    tempeffects = all
    gmindc = 1 pS
    rabsshort = 1 mOhm
    dc: dc = 25 mV        (2.5 %), step = 1 mV         (100 m%)
    dc: dc = 26 mV        (2.6 %), step = 1 mV         (100 m%)
    dc: dc = 27 mV        (2.7 %), step = 1 mV         (100 m%)
    dc: dc = 28 mV        (2.8 %), step = 1 mV         (100 m%)
    dc: dc = 29 mV        (2.9 %), step = 1 mV         (100 m%)
    dc: dc = 30 mV          (3 %), step = 1 mV         (100 m%)
    dc: dc = 31 mV        (3.1 %), step = 1 mV         (100 m%)
    dc: dc = 32 mV        (3.2 %), step = 1 mV         (100 m%)
    dc: dc = 33 mV        (3.3 %), step = 1 mV         (100 m%)
    dc: dc = 34 mV        (3.4 %), step = 1 mV         (100 m%)
    dc: dc = 35 mV        (3.5 %), step = 1 mV         (100 m%)
    dc: dc = 36 mV        (3.6 %), step = 1 mV         (100 m%)
    dc: dc = 37 mV        (3.7 %), step = 1 mV         (100 m%)
    dc: dc = 38 mV        (3.8 %), step = 1 mV         (100 m%)
    dc: dc = 39 mV        (3.9 %), step = 1 mV         (100 m%)
    dc: dc = 40 mV          (4 %), step = 1 mV         (100 m%)
    dc: dc = 41 mV        (4.1 %), step = 1 mV         (100 m%)
    dc: dc = 42 mV        (4.2 %), step = 1 mV         (100 m%)
    dc: dc = 43 mV        (4.3 %), step = 1 mV         (100 m%)
    dc: dc = 44 mV        (4.4 %), step = 1 mV         (100 m%)
    dc: dc = 45 mV        (4.5 %), step = 1 mV         (100 m%)
    dc: dc = 46 mV        (4.6 %), step = 1 mV         (100 m%)
    dc: dc = 47 mV        (4.7 %), step = 1 mV         (100 m%)
    dc: dc = 48 mV        (4.8 %), step = 1 mV         (100 m%)
    dc: dc = 49 mV        (4.9 %), step = 1 mV         (100 m%)
    dc: dc = 50 mV          (5 %), step = 1 mV         (100 m%)
    dc: dc = 51 mV        (5.1 %), step = 1 mV         (100 m%)
    dc: dc = 52 mV        (5.2 %), step = 1 mV         (100 m%)
    dc: dc = 53 mV        (5.3 %), step = 1 mV         (100 m%)
    dc: dc = 54 mV        (5.4 %), step = 1 mV         (100 m%)
    dc: dc = 55 mV        (5.5 %), step = 1 mV         (100 m%)
    dc: dc = 56 mV        (5.6 %), step = 1 mV         (100 m%)
    dc: dc = 57 mV        (5.7 %), step = 1 mV         (100 m%)
    dc: dc = 58 mV        (5.8 %), step = 1 mV         (100 m%)
    dc: dc = 59 mV        (5.9 %), step = 1 mV         (100 m%)
    dc: dc = 60 mV          (6 %), step = 1 mV         (100 m%)
    dc: dc = 61 mV        (6.1 %), step = 1 mV         (100 m%)
    dc: dc = 62 mV        (6.2 %), step = 1 mV         (100 m%)
    dc: dc = 63 mV        (6.3 %), step = 1 mV         (100 m%)
    dc: dc = 64 mV        (6.4 %), step = 1 mV         (100 m%)
    dc: dc = 65 mV        (6.5 %), step = 1 mV         (100 m%)
    dc: dc = 66 mV        (6.6 %), step = 1 mV         (100 m%)
    dc: dc = 67 mV        (6.7 %), step = 1 mV         (100 m%)
    dc: dc = 68 mV        (6.8 %), step = 1 mV         (100 m%)
    dc: dc = 69 mV        (6.9 %), step = 1 mV         (100 m%)
    dc: dc = 70 mV          (7 %), step = 1 mV         (100 m%)
    dc: dc = 71 mV        (7.1 %), step = 1 mV         (100 m%)
    dc: dc = 72 mV        (7.2 %), step = 1 mV         (100 m%)
    dc: dc = 73 mV        (7.3 %), step = 1 mV         (100 m%)
    dc: dc = 74 mV        (7.4 %), step = 1 mV         (100 m%)
    dc: dc = 75 mV        (7.5 %), step = 1 mV         (100 m%)
    dc: dc = 76 mV        (7.6 %), step = 1 mV         (100 m%)
    dc: dc = 77 mV        (7.7 %), step = 1 mV         (100 m%)
    dc: dc = 78 mV        (7.8 %), step = 1 mV         (100 m%)
    dc: dc = 79 mV        (7.9 %), step = 1 mV         (100 m%)
    dc: dc = 80 mV          (8 %), step = 1 mV         (100 m%)
    dc: dc = 81 mV        (8.1 %), step = 1 mV         (100 m%)
    dc: dc = 82 mV        (8.2 %), step = 1 mV         (100 m%)
    dc: dc = 83 mV        (8.3 %), step = 1 mV         (100 m%)
    dc: dc = 84 mV        (8.4 %), step = 1 mV         (100 m%)
    dc: dc = 85 mV        (8.5 %), step = 1 mV         (100 m%)
    dc: dc = 86 mV        (8.6 %), step = 1 mV         (100 m%)
    dc: dc = 87 mV        (8.7 %), step = 1 mV         (100 m%)
    dc: dc = 88 mV        (8.8 %), step = 1 mV         (100 m%)
    dc: dc = 89 mV        (8.9 %), step = 1 mV         (100 m%)
    dc: dc = 90 mV          (9 %), step = 1 mV         (100 m%)
    dc: dc = 91 mV        (9.1 %), step = 1 mV         (100 m%)
    dc: dc = 92 mV        (9.2 %), step = 1 mV         (100 m%)
    dc: dc = 93 mV        (9.3 %), step = 1 mV         (100 m%)
    dc: dc = 94 mV        (9.4 %), step = 1 mV         (100 m%)
    dc: dc = 95 mV        (9.5 %), step = 1 mV         (100 m%)
    dc: dc = 96 mV        (9.6 %), step = 1 mV         (100 m%)
    dc: dc = 97 mV        (9.7 %), step = 1 mV         (100 m%)
    dc: dc = 98 mV        (9.8 %), step = 1 mV         (100 m%)
    dc: dc = 99 mV        (9.9 %), step = 1 mV         (100 m%)
    dc: dc = 100 mV        (10 %), step = 1 mV         (100 m%)
    dc: dc = 101 mV      (10.1 %), step = 1 mV         (100 m%)
    dc: dc = 102 mV      (10.2 %), step = 1 mV         (100 m%)
    dc: dc = 103 mV      (10.3 %), step = 1 mV         (100 m%)
    dc: dc = 104 mV      (10.4 %), step = 1 mV         (100 m%)
    dc: dc = 105 mV      (10.5 %), step = 1 mV         (100 m%)
    dc: dc = 106 mV      (10.6 %), step = 1 mV         (100 m%)
    dc: dc = 107 mV      (10.7 %), step = 1 mV         (100 m%)
    dc: dc = 108 mV      (10.8 %), step = 1 mV         (100 m%)
    dc: dc = 109 mV      (10.9 %), step = 1 mV         (100 m%)
    dc: dc = 110 mV        (11 %), step = 1 mV         (100 m%)
    dc: dc = 111 mV      (11.1 %), step = 1 mV         (100 m%)
    dc: dc = 112 mV      (11.2 %), step = 1 mV         (100 m%)
    dc: dc = 113 mV      (11.3 %), step = 1 mV         (100 m%)
    dc: dc = 114 mV      (11.4 %), step = 1 mV         (100 m%)
    dc: dc = 115 mV      (11.5 %), step = 1 mV         (100 m%)
    dc: dc = 116 mV      (11.6 %), step = 1 mV         (100 m%)
    dc: dc = 117 mV      (11.7 %), step = 1 mV         (100 m%)
    dc: dc = 118 mV      (11.8 %), step = 1 mV         (100 m%)
    dc: dc = 119 mV      (11.9 %), step = 1 mV         (100 m%)
    dc: dc = 120 mV        (12 %), step = 1 mV         (100 m%)
    dc: dc = 121 mV      (12.1 %), step = 1 mV         (100 m%)
    dc: dc = 122 mV      (12.2 %), step = 1 mV         (100 m%)
    dc: dc = 123 mV      (12.3 %), step = 1 mV         (100 m%)
    dc: dc = 124 mV      (12.4 %), step = 1 mV         (100 m%)
    dc: dc = 125 mV      (12.5 %), step = 1 mV         (100 m%)
    dc: dc = 126 mV      (12.6 %), step = 1 mV         (100 m%)
    dc: dc = 127 mV      (12.7 %), step = 1 mV         (100 m%)
    dc: dc = 128 mV      (12.8 %), step = 1 mV         (100 m%)
    dc: dc = 129 mV      (12.9 %), step = 1 mV         (100 m%)
    dc: dc = 130 mV        (13 %), step = 1 mV         (100 m%)
    dc: dc = 131 mV      (13.1 %), step = 1 mV         (100 m%)
    dc: dc = 132 mV      (13.2 %), step = 1 mV         (100 m%)
    dc: dc = 133 mV      (13.3 %), step = 1 mV         (100 m%)
    dc: dc = 134 mV      (13.4 %), step = 1 mV         (100 m%)
    dc: dc = 135 mV      (13.5 %), step = 1 mV         (100 m%)
    dc: dc = 136 mV      (13.6 %), step = 1 mV         (100 m%)
    dc: dc = 137 mV      (13.7 %), step = 1 mV         (100 m%)
    dc: dc = 138 mV      (13.8 %), step = 1 mV         (100 m%)
    dc: dc = 139 mV      (13.9 %), step = 1 mV         (100 m%)
    dc: dc = 140 mV        (14 %), step = 1 mV         (100 m%)
    dc: dc = 141 mV      (14.1 %), step = 1 mV         (100 m%)
    dc: dc = 142 mV      (14.2 %), step = 1 mV         (100 m%)
    dc: dc = 143 mV      (14.3 %), step = 1 mV         (100 m%)
    dc: dc = 144 mV      (14.4 %), step = 1 mV         (100 m%)
    dc: dc = 145 mV      (14.5 %), step = 1 mV         (100 m%)
    dc: dc = 146 mV      (14.6 %), step = 1 mV         (100 m%)
    dc: dc = 147 mV      (14.7 %), step = 1 mV         (100 m%)
    dc: dc = 148 mV      (14.8 %), step = 1 mV         (100 m%)
    dc: dc = 149 mV      (14.9 %), step = 1 mV         (100 m%)
    dc: dc = 150 mV        (15 %), step = 1 mV         (100 m%)
    dc: dc = 151 mV      (15.1 %), step = 1 mV         (100 m%)
    dc: dc = 152 mV      (15.2 %), step = 1 mV         (100 m%)
    dc: dc = 153 mV      (15.3 %), step = 1 mV         (100 m%)
    dc: dc = 154 mV      (15.4 %), step = 1 mV         (100 m%)
    dc: dc = 155 mV      (15.5 %), step = 1 mV         (100 m%)
    dc: dc = 156 mV      (15.6 %), step = 1 mV         (100 m%)
    dc: dc = 157 mV      (15.7 %), step = 1 mV         (100 m%)
    dc: dc = 158 mV      (15.8 %), step = 1 mV         (100 m%)
    dc: dc = 159 mV      (15.9 %), step = 1 mV         (100 m%)
    dc: dc = 160 mV        (16 %), step = 1 mV         (100 m%)
    dc: dc = 161 mV      (16.1 %), step = 1 mV         (100 m%)
    dc: dc = 162 mV      (16.2 %), step = 1 mV         (100 m%)
    dc: dc = 163 mV      (16.3 %), step = 1 mV         (100 m%)
    dc: dc = 164 mV      (16.4 %), step = 1 mV         (100 m%)
    dc: dc = 165 mV      (16.5 %), step = 1 mV         (100 m%)
    dc: dc = 166 mV      (16.6 %), step = 1 mV         (100 m%)
    dc: dc = 167 mV      (16.7 %), step = 1 mV         (100 m%)
    dc: dc = 168 mV      (16.8 %), step = 1 mV         (100 m%)
    dc: dc = 169 mV      (16.9 %), step = 1 mV         (100 m%)
    dc: dc = 170 mV        (17 %), step = 1 mV         (100 m%)
    dc: dc = 171 mV      (17.1 %), step = 1 mV         (100 m%)
    dc: dc = 172 mV      (17.2 %), step = 1 mV         (100 m%)
    dc: dc = 173 mV      (17.3 %), step = 1 mV         (100 m%)
    dc: dc = 174 mV      (17.4 %), step = 1 mV         (100 m%)
    dc: dc = 175 mV      (17.5 %), step = 1 mV         (100 m%)
    dc: dc = 176 mV      (17.6 %), step = 1 mV         (100 m%)
    dc: dc = 177 mV      (17.7 %), step = 1 mV         (100 m%)
    dc: dc = 178 mV      (17.8 %), step = 1 mV         (100 m%)
    dc: dc = 179 mV      (17.9 %), step = 1 mV         (100 m%)
    dc: dc = 180 mV        (18 %), step = 1 mV         (100 m%)
    dc: dc = 181 mV      (18.1 %), step = 1 mV         (100 m%)
    dc: dc = 182 mV      (18.2 %), step = 1 mV         (100 m%)
    dc: dc = 183 mV      (18.3 %), step = 1 mV         (100 m%)
    dc: dc = 184 mV      (18.4 %), step = 1 mV         (100 m%)
    dc: dc = 185 mV      (18.5 %), step = 1 mV         (100 m%)
    dc: dc = 186 mV      (18.6 %), step = 1 mV         (100 m%)
    dc: dc = 187 mV      (18.7 %), step = 1 mV         (100 m%)
    dc: dc = 188 mV      (18.8 %), step = 1 mV         (100 m%)
    dc: dc = 189 mV      (18.9 %), step = 1 mV         (100 m%)
    dc: dc = 190 mV        (19 %), step = 1 mV         (100 m%)
    dc: dc = 191 mV      (19.1 %), step = 1 mV         (100 m%)
    dc: dc = 192 mV      (19.2 %), step = 1 mV         (100 m%)
    dc: dc = 193 mV      (19.3 %), step = 1 mV         (100 m%)
    dc: dc = 194 mV      (19.4 %), step = 1 mV         (100 m%)
    dc: dc = 195 mV      (19.5 %), step = 1 mV         (100 m%)
    dc: dc = 196 mV      (19.6 %), step = 1 mV         (100 m%)
    dc: dc = 197 mV      (19.7 %), step = 1 mV         (100 m%)
    dc: dc = 198 mV      (19.8 %), step = 1 mV         (100 m%)
    dc: dc = 199 mV      (19.9 %), step = 1 mV         (100 m%)
    dc: dc = 200 mV        (20 %), step = 1 mV         (100 m%)
    dc: dc = 201 mV      (20.1 %), step = 1 mV         (100 m%)
    dc: dc = 202 mV      (20.2 %), step = 1 mV         (100 m%)
    dc: dc = 203 mV      (20.3 %), step = 1 mV         (100 m%)
    dc: dc = 204 mV      (20.4 %), step = 1 mV         (100 m%)
    dc: dc = 205 mV      (20.5 %), step = 1 mV         (100 m%)
    dc: dc = 206 mV      (20.6 %), step = 1 mV         (100 m%)
    dc: dc = 207 mV      (20.7 %), step = 1 mV         (100 m%)
    dc: dc = 208 mV      (20.8 %), step = 1 mV         (100 m%)
    dc: dc = 209 mV      (20.9 %), step = 1 mV         (100 m%)
    dc: dc = 210 mV        (21 %), step = 1 mV         (100 m%)
    dc: dc = 211 mV      (21.1 %), step = 1 mV         (100 m%)
    dc: dc = 212 mV      (21.2 %), step = 1 mV         (100 m%)
    dc: dc = 213 mV      (21.3 %), step = 1 mV         (100 m%)
    dc: dc = 214 mV      (21.4 %), step = 1 mV         (100 m%)
    dc: dc = 215 mV      (21.5 %), step = 1 mV         (100 m%)
    dc: dc = 216 mV      (21.6 %), step = 1 mV         (100 m%)
    dc: dc = 217 mV      (21.7 %), step = 1 mV         (100 m%)
    dc: dc = 218 mV      (21.8 %), step = 1 mV         (100 m%)
    dc: dc = 219 mV      (21.9 %), step = 1 mV         (100 m%)
    dc: dc = 220 mV        (22 %), step = 1 mV         (100 m%)
    dc: dc = 221 mV      (22.1 %), step = 1 mV         (100 m%)
    dc: dc = 222 mV      (22.2 %), step = 1 mV         (100 m%)
    dc: dc = 223 mV      (22.3 %), step = 1 mV         (100 m%)
    dc: dc = 224 mV      (22.4 %), step = 1 mV         (100 m%)
    dc: dc = 225 mV      (22.5 %), step = 1 mV         (100 m%)
    dc: dc = 226 mV      (22.6 %), step = 1 mV         (100 m%)
    dc: dc = 227 mV      (22.7 %), step = 1 mV         (100 m%)
    dc: dc = 228 mV      (22.8 %), step = 1 mV         (100 m%)
    dc: dc = 229 mV      (22.9 %), step = 1 mV         (100 m%)
    dc: dc = 230 mV        (23 %), step = 1 mV         (100 m%)
    dc: dc = 231 mV      (23.1 %), step = 1 mV         (100 m%)
    dc: dc = 232 mV      (23.2 %), step = 1 mV         (100 m%)
    dc: dc = 233 mV      (23.3 %), step = 1 mV         (100 m%)
    dc: dc = 234 mV      (23.4 %), step = 1 mV         (100 m%)
    dc: dc = 235 mV      (23.5 %), step = 1 mV         (100 m%)
    dc: dc = 236 mV      (23.6 %), step = 1 mV         (100 m%)
    dc: dc = 237 mV      (23.7 %), step = 1 mV         (100 m%)
    dc: dc = 238 mV      (23.8 %), step = 1 mV         (100 m%)
    dc: dc = 239 mV      (23.9 %), step = 1 mV         (100 m%)
    dc: dc = 240 mV        (24 %), step = 1 mV         (100 m%)
    dc: dc = 241 mV      (24.1 %), step = 1 mV         (100 m%)
    dc: dc = 242 mV      (24.2 %), step = 1 mV         (100 m%)
    dc: dc = 243 mV      (24.3 %), step = 1 mV         (100 m%)
    dc: dc = 244 mV      (24.4 %), step = 1 mV         (100 m%)
    dc: dc = 245 mV      (24.5 %), step = 1 mV         (100 m%)
    dc: dc = 246 mV      (24.6 %), step = 1 mV         (100 m%)
    dc: dc = 247 mV      (24.7 %), step = 1 mV         (100 m%)
    dc: dc = 248 mV      (24.8 %), step = 1 mV         (100 m%)
    dc: dc = 249 mV      (24.9 %), step = 1 mV         (100 m%)
    dc: dc = 250 mV        (25 %), step = 1 mV         (100 m%)
    dc: dc = 251 mV      (25.1 %), step = 1 mV         (100 m%)
    dc: dc = 252 mV      (25.2 %), step = 1 mV         (100 m%)
    dc: dc = 253 mV      (25.3 %), step = 1 mV         (100 m%)
    dc: dc = 254 mV      (25.4 %), step = 1 mV         (100 m%)
    dc: dc = 255 mV      (25.5 %), step = 1 mV         (100 m%)
    dc: dc = 256 mV      (25.6 %), step = 1 mV         (100 m%)
    dc: dc = 257 mV      (25.7 %), step = 1 mV         (100 m%)
    dc: dc = 258 mV      (25.8 %), step = 1 mV         (100 m%)
    dc: dc = 259 mV      (25.9 %), step = 1 mV         (100 m%)
    dc: dc = 260 mV        (26 %), step = 1 mV         (100 m%)
    dc: dc = 261 mV      (26.1 %), step = 1 mV         (100 m%)
    dc: dc = 262 mV      (26.2 %), step = 1 mV         (100 m%)
    dc: dc = 263 mV      (26.3 %), step = 1 mV         (100 m%)
    dc: dc = 264 mV      (26.4 %), step = 1 mV         (100 m%)
    dc: dc = 265 mV      (26.5 %), step = 1 mV         (100 m%)
    dc: dc = 266 mV      (26.6 %), step = 1 mV         (100 m%)
    dc: dc = 267 mV      (26.7 %), step = 1 mV         (100 m%)
    dc: dc = 268 mV      (26.8 %), step = 1 mV         (100 m%)
    dc: dc = 269 mV      (26.9 %), step = 1 mV         (100 m%)
    dc: dc = 270 mV        (27 %), step = 1 mV         (100 m%)
    dc: dc = 271 mV      (27.1 %), step = 1 mV         (100 m%)
    dc: dc = 272 mV      (27.2 %), step = 1 mV         (100 m%)
    dc: dc = 273 mV      (27.3 %), step = 1 mV         (100 m%)
    dc: dc = 274 mV      (27.4 %), step = 1 mV         (100 m%)
    dc: dc = 275 mV      (27.5 %), step = 1 mV         (100 m%)
    dc: dc = 276 mV      (27.6 %), step = 1 mV         (100 m%)
    dc: dc = 277 mV      (27.7 %), step = 1 mV         (100 m%)
    dc: dc = 278 mV      (27.8 %), step = 1 mV         (100 m%)
    dc: dc = 279 mV      (27.9 %), step = 1 mV         (100 m%)
    dc: dc = 280 mV        (28 %), step = 1 mV         (100 m%)
    dc: dc = 281 mV      (28.1 %), step = 1 mV         (100 m%)
    dc: dc = 282 mV      (28.2 %), step = 1 mV         (100 m%)
    dc: dc = 283 mV      (28.3 %), step = 1 mV         (100 m%)
    dc: dc = 284 mV      (28.4 %), step = 1 mV         (100 m%)
    dc: dc = 285 mV      (28.5 %), step = 1 mV         (100 m%)
    dc: dc = 286 mV      (28.6 %), step = 1 mV         (100 m%)
    dc: dc = 287 mV      (28.7 %), step = 1 mV         (100 m%)
    dc: dc = 288 mV      (28.8 %), step = 1 mV         (100 m%)
    dc: dc = 289 mV      (28.9 %), step = 1 mV         (100 m%)
    dc: dc = 290 mV        (29 %), step = 1 mV         (100 m%)
    dc: dc = 291 mV      (29.1 %), step = 1 mV         (100 m%)
    dc: dc = 292 mV      (29.2 %), step = 1 mV         (100 m%)
    dc: dc = 293 mV      (29.3 %), step = 1 mV         (100 m%)
    dc: dc = 294 mV      (29.4 %), step = 1 mV         (100 m%)
    dc: dc = 295 mV      (29.5 %), step = 1 mV         (100 m%)
    dc: dc = 296 mV      (29.6 %), step = 1 mV         (100 m%)
    dc: dc = 297 mV      (29.7 %), step = 1 mV         (100 m%)
    dc: dc = 298 mV      (29.8 %), step = 1 mV         (100 m%)
    dc: dc = 299 mV      (29.9 %), step = 1 mV         (100 m%)
    dc: dc = 300 mV        (30 %), step = 1 mV         (100 m%)
    dc: dc = 301 mV      (30.1 %), step = 1 mV         (100 m%)
    dc: dc = 302 mV      (30.2 %), step = 1 mV         (100 m%)
    dc: dc = 303 mV      (30.3 %), step = 1 mV         (100 m%)
    dc: dc = 304 mV      (30.4 %), step = 1 mV         (100 m%)
    dc: dc = 305 mV      (30.5 %), step = 1 mV         (100 m%)
    dc: dc = 306 mV      (30.6 %), step = 1 mV         (100 m%)
    dc: dc = 307 mV      (30.7 %), step = 1 mV         (100 m%)
    dc: dc = 308 mV      (30.8 %), step = 1 mV         (100 m%)
    dc: dc = 309 mV      (30.9 %), step = 1 mV         (100 m%)
    dc: dc = 310 mV        (31 %), step = 1 mV         (100 m%)
    dc: dc = 311 mV      (31.1 %), step = 1 mV         (100 m%)
    dc: dc = 312 mV      (31.2 %), step = 1 mV         (100 m%)
    dc: dc = 313 mV      (31.3 %), step = 1 mV         (100 m%)
    dc: dc = 314 mV      (31.4 %), step = 1 mV         (100 m%)
    dc: dc = 315 mV      (31.5 %), step = 1 mV         (100 m%)
    dc: dc = 316 mV      (31.6 %), step = 1 mV         (100 m%)
    dc: dc = 317 mV      (31.7 %), step = 1 mV         (100 m%)
    dc: dc = 318 mV      (31.8 %), step = 1 mV         (100 m%)
    dc: dc = 319 mV      (31.9 %), step = 1 mV         (100 m%)
    dc: dc = 320 mV        (32 %), step = 1 mV         (100 m%)
    dc: dc = 321 mV      (32.1 %), step = 1 mV         (100 m%)
    dc: dc = 322 mV      (32.2 %), step = 1 mV         (100 m%)
    dc: dc = 323 mV      (32.3 %), step = 1 mV         (100 m%)
    dc: dc = 324 mV      (32.4 %), step = 1 mV         (100 m%)
    dc: dc = 325 mV      (32.5 %), step = 1 mV         (100 m%)
    dc: dc = 326 mV      (32.6 %), step = 1 mV         (100 m%)
    dc: dc = 327 mV      (32.7 %), step = 1 mV         (100 m%)
    dc: dc = 328 mV      (32.8 %), step = 1 mV         (100 m%)
    dc: dc = 329 mV      (32.9 %), step = 1 mV         (100 m%)
    dc: dc = 330 mV        (33 %), step = 1 mV         (100 m%)
    dc: dc = 331 mV      (33.1 %), step = 1 mV         (100 m%)
    dc: dc = 332 mV      (33.2 %), step = 1 mV         (100 m%)
    dc: dc = 333 mV      (33.3 %), step = 1 mV         (100 m%)
    dc: dc = 334 mV      (33.4 %), step = 1 mV         (100 m%)
    dc: dc = 335 mV      (33.5 %), step = 1 mV         (100 m%)
    dc: dc = 336 mV      (33.6 %), step = 1 mV         (100 m%)
    dc: dc = 337 mV      (33.7 %), step = 1 mV         (100 m%)
    dc: dc = 338 mV      (33.8 %), step = 1 mV         (100 m%)
    dc: dc = 339 mV      (33.9 %), step = 1 mV         (100 m%)
    dc: dc = 340 mV        (34 %), step = 1 mV         (100 m%)
    dc: dc = 341 mV      (34.1 %), step = 1 mV         (100 m%)
    dc: dc = 342 mV      (34.2 %), step = 1 mV         (100 m%)
    dc: dc = 343 mV      (34.3 %), step = 1 mV         (100 m%)
    dc: dc = 344 mV      (34.4 %), step = 1 mV         (100 m%)
    dc: dc = 345 mV      (34.5 %), step = 1 mV         (100 m%)
    dc: dc = 346 mV      (34.6 %), step = 1 mV         (100 m%)
    dc: dc = 347 mV      (34.7 %), step = 1 mV         (100 m%)
    dc: dc = 348 mV      (34.8 %), step = 1 mV         (100 m%)
    dc: dc = 349 mV      (34.9 %), step = 1 mV         (100 m%)
    dc: dc = 350 mV        (35 %), step = 1 mV         (100 m%)
    dc: dc = 351 mV      (35.1 %), step = 1 mV         (100 m%)
    dc: dc = 352 mV      (35.2 %), step = 1 mV         (100 m%)
    dc: dc = 353 mV      (35.3 %), step = 1 mV         (100 m%)
    dc: dc = 354 mV      (35.4 %), step = 1 mV         (100 m%)
    dc: dc = 355 mV      (35.5 %), step = 1 mV         (100 m%)
    dc: dc = 356 mV      (35.6 %), step = 1 mV         (100 m%)
    dc: dc = 357 mV      (35.7 %), step = 1 mV         (100 m%)
    dc: dc = 358 mV      (35.8 %), step = 1 mV         (100 m%)
    dc: dc = 359 mV      (35.9 %), step = 1 mV         (100 m%)
    dc: dc = 360 mV        (36 %), step = 1 mV         (100 m%)
    dc: dc = 361 mV      (36.1 %), step = 1 mV         (100 m%)
    dc: dc = 362 mV      (36.2 %), step = 1 mV         (100 m%)
    dc: dc = 363 mV      (36.3 %), step = 1 mV         (100 m%)
    dc: dc = 364 mV      (36.4 %), step = 1 mV         (100 m%)
    dc: dc = 365 mV      (36.5 %), step = 1 mV         (100 m%)
    dc: dc = 366 mV      (36.6 %), step = 1 mV         (100 m%)
    dc: dc = 367 mV      (36.7 %), step = 1 mV         (100 m%)
    dc: dc = 368 mV      (36.8 %), step = 1 mV         (100 m%)
    dc: dc = 369 mV      (36.9 %), step = 1 mV         (100 m%)
    dc: dc = 370 mV        (37 %), step = 1 mV         (100 m%)
    dc: dc = 371 mV      (37.1 %), step = 1 mV         (100 m%)
    dc: dc = 372 mV      (37.2 %), step = 1 mV         (100 m%)
    dc: dc = 373 mV      (37.3 %), step = 1 mV         (100 m%)
    dc: dc = 374 mV      (37.4 %), step = 1 mV         (100 m%)
    dc: dc = 375 mV      (37.5 %), step = 1 mV         (100 m%)
    dc: dc = 376 mV      (37.6 %), step = 1 mV         (100 m%)
    dc: dc = 377 mV      (37.7 %), step = 1 mV         (100 m%)
    dc: dc = 378 mV      (37.8 %), step = 1 mV         (100 m%)
    dc: dc = 379 mV      (37.9 %), step = 1 mV         (100 m%)
    dc: dc = 380 mV        (38 %), step = 1 mV         (100 m%)
    dc: dc = 381 mV      (38.1 %), step = 1 mV         (100 m%)
    dc: dc = 382 mV      (38.2 %), step = 1 mV         (100 m%)
    dc: dc = 383 mV      (38.3 %), step = 1 mV         (100 m%)
    dc: dc = 384 mV      (38.4 %), step = 1 mV         (100 m%)
    dc: dc = 385 mV      (38.5 %), step = 1 mV         (100 m%)
    dc: dc = 386 mV      (38.6 %), step = 1 mV         (100 m%)
    dc: dc = 387 mV      (38.7 %), step = 1 mV         (100 m%)
    dc: dc = 388 mV      (38.8 %), step = 1 mV         (100 m%)
    dc: dc = 389 mV      (38.9 %), step = 1 mV         (100 m%)
    dc: dc = 390 mV        (39 %), step = 1 mV         (100 m%)
    dc: dc = 391 mV      (39.1 %), step = 1 mV         (100 m%)
    dc: dc = 392 mV      (39.2 %), step = 1 mV         (100 m%)
    dc: dc = 393 mV      (39.3 %), step = 1 mV         (100 m%)
    dc: dc = 394 mV      (39.4 %), step = 1 mV         (100 m%)
    dc: dc = 395 mV      (39.5 %), step = 1 mV         (100 m%)
    dc: dc = 396 mV      (39.6 %), step = 1 mV         (100 m%)
    dc: dc = 397 mV      (39.7 %), step = 1 mV         (100 m%)
    dc: dc = 398 mV      (39.8 %), step = 1 mV         (100 m%)
    dc: dc = 399 mV      (39.9 %), step = 1 mV         (100 m%)
    dc: dc = 400 mV        (40 %), step = 1 mV         (100 m%)
    dc: dc = 401 mV      (40.1 %), step = 1 mV         (100 m%)
    dc: dc = 402 mV      (40.2 %), step = 1 mV         (100 m%)
    dc: dc = 403 mV      (40.3 %), step = 1 mV         (100 m%)
    dc: dc = 404 mV      (40.4 %), step = 1 mV         (100 m%)
    dc: dc = 405 mV      (40.5 %), step = 1 mV         (100 m%)
    dc: dc = 406 mV      (40.6 %), step = 1 mV         (100 m%)
    dc: dc = 407 mV      (40.7 %), step = 1 mV         (100 m%)
    dc: dc = 408 mV      (40.8 %), step = 1 mV         (100 m%)
    dc: dc = 409 mV      (40.9 %), step = 1 mV         (100 m%)
    dc: dc = 410 mV        (41 %), step = 1 mV         (100 m%)
    dc: dc = 411 mV      (41.1 %), step = 1 mV         (100 m%)
    dc: dc = 412 mV      (41.2 %), step = 1 mV         (100 m%)
    dc: dc = 413 mV      (41.3 %), step = 1 mV         (100 m%)
    dc: dc = 414 mV      (41.4 %), step = 1 mV         (100 m%)
    dc: dc = 415 mV      (41.5 %), step = 1 mV         (100 m%)
    dc: dc = 416 mV      (41.6 %), step = 1 mV         (100 m%)
    dc: dc = 417 mV      (41.7 %), step = 1 mV         (100 m%)
    dc: dc = 418 mV      (41.8 %), step = 1 mV         (100 m%)
    dc: dc = 419 mV      (41.9 %), step = 1 mV         (100 m%)
    dc: dc = 420 mV        (42 %), step = 1 mV         (100 m%)
    dc: dc = 421 mV      (42.1 %), step = 1 mV         (100 m%)
    dc: dc = 422 mV      (42.2 %), step = 1 mV         (100 m%)
    dc: dc = 423 mV      (42.3 %), step = 1 mV         (100 m%)
    dc: dc = 424 mV      (42.4 %), step = 1 mV         (100 m%)
    dc: dc = 425 mV      (42.5 %), step = 1 mV         (100 m%)
    dc: dc = 426 mV      (42.6 %), step = 1 mV         (100 m%)
    dc: dc = 427 mV      (42.7 %), step = 1 mV         (100 m%)
    dc: dc = 428 mV      (42.8 %), step = 1 mV         (100 m%)
    dc: dc = 429 mV      (42.9 %), step = 1 mV         (100 m%)
    dc: dc = 430 mV        (43 %), step = 1 mV         (100 m%)
    dc: dc = 431 mV      (43.1 %), step = 1 mV         (100 m%)
    dc: dc = 432 mV      (43.2 %), step = 1 mV         (100 m%)
    dc: dc = 433 mV      (43.3 %), step = 1 mV         (100 m%)
    dc: dc = 434 mV      (43.4 %), step = 1 mV         (100 m%)
    dc: dc = 435 mV      (43.5 %), step = 1 mV         (100 m%)
    dc: dc = 436 mV      (43.6 %), step = 1 mV         (100 m%)
    dc: dc = 437 mV      (43.7 %), step = 1 mV         (100 m%)
    dc: dc = 438 mV      (43.8 %), step = 1 mV         (100 m%)
    dc: dc = 439 mV      (43.9 %), step = 1 mV         (100 m%)
    dc: dc = 440 mV        (44 %), step = 1 mV         (100 m%)
    dc: dc = 441 mV      (44.1 %), step = 1 mV         (100 m%)
    dc: dc = 442 mV      (44.2 %), step = 1 mV         (100 m%)
    dc: dc = 443 mV      (44.3 %), step = 1 mV         (100 m%)
    dc: dc = 444 mV      (44.4 %), step = 1 mV         (100 m%)
    dc: dc = 445 mV      (44.5 %), step = 1 mV         (100 m%)
    dc: dc = 446 mV      (44.6 %), step = 1 mV         (100 m%)
    dc: dc = 447 mV      (44.7 %), step = 1 mV         (100 m%)
    dc: dc = 448 mV      (44.8 %), step = 1 mV         (100 m%)
    dc: dc = 449 mV      (44.9 %), step = 1 mV         (100 m%)
    dc: dc = 450 mV        (45 %), step = 1 mV         (100 m%)
    dc: dc = 451 mV      (45.1 %), step = 1 mV         (100 m%)
    dc: dc = 452 mV      (45.2 %), step = 1 mV         (100 m%)
    dc: dc = 453 mV      (45.3 %), step = 1 mV         (100 m%)
    dc: dc = 454 mV      (45.4 %), step = 1 mV         (100 m%)
    dc: dc = 455 mV      (45.5 %), step = 1 mV         (100 m%)
    dc: dc = 456 mV      (45.6 %), step = 1 mV         (100 m%)
    dc: dc = 457 mV      (45.7 %), step = 1 mV         (100 m%)
    dc: dc = 458 mV      (45.8 %), step = 1 mV         (100 m%)
    dc: dc = 459 mV      (45.9 %), step = 1 mV         (100 m%)
    dc: dc = 460 mV        (46 %), step = 1 mV         (100 m%)
    dc: dc = 461 mV      (46.1 %), step = 1 mV         (100 m%)
    dc: dc = 462 mV      (46.2 %), step = 1 mV         (100 m%)
    dc: dc = 463 mV      (46.3 %), step = 1 mV         (100 m%)
    dc: dc = 464 mV      (46.4 %), step = 1 mV         (100 m%)
    dc: dc = 465 mV      (46.5 %), step = 1 mV         (100 m%)
    dc: dc = 466 mV      (46.6 %), step = 1 mV         (100 m%)
    dc: dc = 467 mV      (46.7 %), step = 1 mV         (100 m%)
    dc: dc = 468 mV      (46.8 %), step = 1 mV         (100 m%)
    dc: dc = 469 mV      (46.9 %), step = 1 mV         (100 m%)
    dc: dc = 470 mV        (47 %), step = 1 mV         (100 m%)
    dc: dc = 471 mV      (47.1 %), step = 1 mV         (100 m%)
    dc: dc = 472 mV      (47.2 %), step = 1 mV         (100 m%)
    dc: dc = 473 mV      (47.3 %), step = 1 mV         (100 m%)
    dc: dc = 474 mV      (47.4 %), step = 1 mV         (100 m%)
    dc: dc = 475 mV      (47.5 %), step = 1 mV         (100 m%)
    dc: dc = 476 mV      (47.6 %), step = 1 mV         (100 m%)
    dc: dc = 477 mV      (47.7 %), step = 1 mV         (100 m%)
    dc: dc = 478 mV      (47.8 %), step = 1 mV         (100 m%)
    dc: dc = 479 mV      (47.9 %), step = 1 mV         (100 m%)
    dc: dc = 480 mV        (48 %), step = 1 mV         (100 m%)
    dc: dc = 481 mV      (48.1 %), step = 1 mV         (100 m%)
    dc: dc = 482 mV      (48.2 %), step = 1 mV         (100 m%)
    dc: dc = 483 mV      (48.3 %), step = 1 mV         (100 m%)
    dc: dc = 484 mV      (48.4 %), step = 1 mV         (100 m%)
    dc: dc = 485 mV      (48.5 %), step = 1 mV         (100 m%)
    dc: dc = 486 mV      (48.6 %), step = 1 mV         (100 m%)
    dc: dc = 487 mV      (48.7 %), step = 1 mV         (100 m%)
    dc: dc = 488 mV      (48.8 %), step = 1 mV         (100 m%)
    dc: dc = 489 mV      (48.9 %), step = 1 mV         (100 m%)
    dc: dc = 490 mV        (49 %), step = 1 mV         (100 m%)
    dc: dc = 491 mV      (49.1 %), step = 1 mV         (100 m%)
    dc: dc = 492 mV      (49.2 %), step = 1 mV         (100 m%)
    dc: dc = 493 mV      (49.3 %), step = 1 mV         (100 m%)
    dc: dc = 494 mV      (49.4 %), step = 1 mV         (100 m%)
    dc: dc = 495 mV      (49.5 %), step = 1 mV         (100 m%)
    dc: dc = 496 mV      (49.6 %), step = 1 mV         (100 m%)
    dc: dc = 497 mV      (49.7 %), step = 1 mV         (100 m%)
    dc: dc = 498 mV      (49.8 %), step = 1 mV         (100 m%)
    dc: dc = 499 mV      (49.9 %), step = 1 mV         (100 m%)
    dc: dc = 500 mV        (50 %), step = 1 mV         (100 m%)
    dc: dc = 501 mV      (50.1 %), step = 1 mV         (100 m%)
    dc: dc = 502 mV      (50.2 %), step = 1 mV         (100 m%)
    dc: dc = 503 mV      (50.3 %), step = 1 mV         (100 m%)
    dc: dc = 504 mV      (50.4 %), step = 1 mV         (100 m%)
    dc: dc = 505 mV      (50.5 %), step = 1 mV         (100 m%)
    dc: dc = 506 mV      (50.6 %), step = 1 mV         (100 m%)
    dc: dc = 507 mV      (50.7 %), step = 1 mV         (100 m%)
    dc: dc = 508 mV      (50.8 %), step = 1 mV         (100 m%)
    dc: dc = 509 mV      (50.9 %), step = 1 mV         (100 m%)
    dc: dc = 510 mV        (51 %), step = 1 mV         (100 m%)
    dc: dc = 511 mV      (51.1 %), step = 1 mV         (100 m%)
    dc: dc = 512 mV      (51.2 %), step = 1 mV         (100 m%)
    dc: dc = 513 mV      (51.3 %), step = 1 mV         (100 m%)
    dc: dc = 514 mV      (51.4 %), step = 1 mV         (100 m%)
    dc: dc = 515 mV      (51.5 %), step = 1 mV         (100 m%)
    dc: dc = 516 mV      (51.6 %), step = 1 mV         (100 m%)
    dc: dc = 517 mV      (51.7 %), step = 1 mV         (100 m%)
    dc: dc = 518 mV      (51.8 %), step = 1 mV         (100 m%)
    dc: dc = 519 mV      (51.9 %), step = 1 mV         (100 m%)
    dc: dc = 520 mV        (52 %), step = 1 mV         (100 m%)
    dc: dc = 521 mV      (52.1 %), step = 1 mV         (100 m%)
    dc: dc = 522 mV      (52.2 %), step = 1 mV         (100 m%)
    dc: dc = 523 mV      (52.3 %), step = 1 mV         (100 m%)
    dc: dc = 524 mV      (52.4 %), step = 1 mV         (100 m%)
    dc: dc = 525 mV      (52.5 %), step = 1 mV         (100 m%)
    dc: dc = 526 mV      (52.6 %), step = 1 mV         (100 m%)
    dc: dc = 527 mV      (52.7 %), step = 1 mV         (100 m%)
    dc: dc = 528 mV      (52.8 %), step = 1 mV         (100 m%)
    dc: dc = 529 mV      (52.9 %), step = 1 mV         (100 m%)
    dc: dc = 530 mV        (53 %), step = 1 mV         (100 m%)
    dc: dc = 531 mV      (53.1 %), step = 1 mV         (100 m%)
    dc: dc = 532 mV      (53.2 %), step = 1 mV         (100 m%)
    dc: dc = 533 mV      (53.3 %), step = 1 mV         (100 m%)
    dc: dc = 534 mV      (53.4 %), step = 1 mV         (100 m%)
    dc: dc = 535 mV      (53.5 %), step = 1 mV         (100 m%)
    dc: dc = 536 mV      (53.6 %), step = 1 mV         (100 m%)
    dc: dc = 537 mV      (53.7 %), step = 1 mV         (100 m%)
    dc: dc = 538 mV      (53.8 %), step = 1 mV         (100 m%)
    dc: dc = 539 mV      (53.9 %), step = 1 mV         (100 m%)
    dc: dc = 540 mV        (54 %), step = 1 mV         (100 m%)
    dc: dc = 541 mV      (54.1 %), step = 1 mV         (100 m%)
    dc: dc = 542 mV      (54.2 %), step = 1 mV         (100 m%)
    dc: dc = 543 mV      (54.3 %), step = 1 mV         (100 m%)
    dc: dc = 544 mV      (54.4 %), step = 1 mV         (100 m%)
    dc: dc = 545 mV      (54.5 %), step = 1 mV         (100 m%)
    dc: dc = 546 mV      (54.6 %), step = 1 mV         (100 m%)
    dc: dc = 547 mV      (54.7 %), step = 1 mV         (100 m%)
    dc: dc = 548 mV      (54.8 %), step = 1 mV         (100 m%)
    dc: dc = 549 mV      (54.9 %), step = 1 mV         (100 m%)
    dc: dc = 550 mV        (55 %), step = 1 mV         (100 m%)
    dc: dc = 551 mV      (55.1 %), step = 1 mV         (100 m%)
    dc: dc = 552 mV      (55.2 %), step = 1 mV         (100 m%)
    dc: dc = 553 mV      (55.3 %), step = 1 mV         (100 m%)
    dc: dc = 554 mV      (55.4 %), step = 1 mV         (100 m%)
    dc: dc = 555 mV      (55.5 %), step = 1 mV         (100 m%)
    dc: dc = 556 mV      (55.6 %), step = 1 mV         (100 m%)
    dc: dc = 557 mV      (55.7 %), step = 1 mV         (100 m%)
    dc: dc = 558 mV      (55.8 %), step = 1 mV         (100 m%)
    dc: dc = 559 mV      (55.9 %), step = 1 mV         (100 m%)
    dc: dc = 560 mV        (56 %), step = 1 mV         (100 m%)
    dc: dc = 561 mV      (56.1 %), step = 1 mV         (100 m%)
    dc: dc = 562 mV      (56.2 %), step = 1 mV         (100 m%)
    dc: dc = 563 mV      (56.3 %), step = 1 mV         (100 m%)
    dc: dc = 564 mV      (56.4 %), step = 1 mV         (100 m%)
    dc: dc = 565 mV      (56.5 %), step = 1 mV         (100 m%)
    dc: dc = 566 mV      (56.6 %), step = 1 mV         (100 m%)
    dc: dc = 567 mV      (56.7 %), step = 1 mV         (100 m%)
    dc: dc = 568 mV      (56.8 %), step = 1 mV         (100 m%)
    dc: dc = 569 mV      (56.9 %), step = 1 mV         (100 m%)
    dc: dc = 570 mV        (57 %), step = 1 mV         (100 m%)
    dc: dc = 571 mV      (57.1 %), step = 1 mV         (100 m%)
    dc: dc = 572 mV      (57.2 %), step = 1 mV         (100 m%)
    dc: dc = 573 mV      (57.3 %), step = 1 mV         (100 m%)
    dc: dc = 574 mV      (57.4 %), step = 1 mV         (100 m%)
    dc: dc = 575 mV      (57.5 %), step = 1 mV         (100 m%)
    dc: dc = 576 mV      (57.6 %), step = 1 mV         (100 m%)
    dc: dc = 577 mV      (57.7 %), step = 1 mV         (100 m%)
    dc: dc = 578 mV      (57.8 %), step = 1 mV         (100 m%)
    dc: dc = 579 mV      (57.9 %), step = 1 mV         (100 m%)
    dc: dc = 580 mV        (58 %), step = 1 mV         (100 m%)
    dc: dc = 581 mV      (58.1 %), step = 1 mV         (100 m%)
    dc: dc = 582 mV      (58.2 %), step = 1 mV         (100 m%)
    dc: dc = 583 mV      (58.3 %), step = 1 mV         (100 m%)
    dc: dc = 584 mV      (58.4 %), step = 1 mV         (100 m%)
    dc: dc = 585 mV      (58.5 %), step = 1 mV         (100 m%)
    dc: dc = 586 mV      (58.6 %), step = 1 mV         (100 m%)
    dc: dc = 587 mV      (58.7 %), step = 1 mV         (100 m%)
    dc: dc = 588 mV      (58.8 %), step = 1 mV         (100 m%)
    dc: dc = 589 mV      (58.9 %), step = 1 mV         (100 m%)
    dc: dc = 590 mV        (59 %), step = 1 mV         (100 m%)
    dc: dc = 591 mV      (59.1 %), step = 1 mV         (100 m%)
    dc: dc = 592 mV      (59.2 %), step = 1 mV         (100 m%)
    dc: dc = 593 mV      (59.3 %), step = 1 mV         (100 m%)
    dc: dc = 594 mV      (59.4 %), step = 1 mV         (100 m%)
    dc: dc = 595 mV      (59.5 %), step = 1 mV         (100 m%)
    dc: dc = 596 mV      (59.6 %), step = 1 mV         (100 m%)
    dc: dc = 597 mV      (59.7 %), step = 1 mV         (100 m%)
    dc: dc = 598 mV      (59.8 %), step = 1 mV         (100 m%)
    dc: dc = 599 mV      (59.9 %), step = 1 mV         (100 m%)
    dc: dc = 600 mV        (60 %), step = 1 mV         (100 m%)
    dc: dc = 601 mV      (60.1 %), step = 1 mV         (100 m%)
    dc: dc = 602 mV      (60.2 %), step = 1 mV         (100 m%)
    dc: dc = 603 mV      (60.3 %), step = 1 mV         (100 m%)
    dc: dc = 604 mV      (60.4 %), step = 1 mV         (100 m%)
    dc: dc = 605 mV      (60.5 %), step = 1 mV         (100 m%)
    dc: dc = 606 mV      (60.6 %), step = 1 mV         (100 m%)
    dc: dc = 607 mV      (60.7 %), step = 1 mV         (100 m%)
    dc: dc = 608 mV      (60.8 %), step = 1 mV         (100 m%)
    dc: dc = 609 mV      (60.9 %), step = 1 mV         (100 m%)
    dc: dc = 610 mV        (61 %), step = 1 mV         (100 m%)
    dc: dc = 611 mV      (61.1 %), step = 1 mV         (100 m%)
    dc: dc = 612 mV      (61.2 %), step = 1 mV         (100 m%)
    dc: dc = 613 mV      (61.3 %), step = 1 mV         (100 m%)
    dc: dc = 614 mV      (61.4 %), step = 1 mV         (100 m%)
    dc: dc = 615 mV      (61.5 %), step = 1 mV         (100 m%)
    dc: dc = 616 mV      (61.6 %), step = 1 mV         (100 m%)
    dc: dc = 617 mV      (61.7 %), step = 1 mV         (100 m%)
    dc: dc = 618 mV      (61.8 %), step = 1 mV         (100 m%)
    dc: dc = 619 mV      (61.9 %), step = 1 mV         (100 m%)
    dc: dc = 620 mV        (62 %), step = 1 mV         (100 m%)
    dc: dc = 621 mV      (62.1 %), step = 1 mV         (100 m%)
    dc: dc = 622 mV      (62.2 %), step = 1 mV         (100 m%)
    dc: dc = 623 mV      (62.3 %), step = 1 mV         (100 m%)
    dc: dc = 624 mV      (62.4 %), step = 1 mV         (100 m%)
    dc: dc = 625 mV      (62.5 %), step = 1 mV         (100 m%)
    dc: dc = 626 mV      (62.6 %), step = 1 mV         (100 m%)
    dc: dc = 627 mV      (62.7 %), step = 1 mV         (100 m%)
    dc: dc = 628 mV      (62.8 %), step = 1 mV         (100 m%)
    dc: dc = 629 mV      (62.9 %), step = 1 mV         (100 m%)
    dc: dc = 630 mV        (63 %), step = 1 mV         (100 m%)
    dc: dc = 631 mV      (63.1 %), step = 1 mV         (100 m%)
    dc: dc = 632 mV      (63.2 %), step = 1 mV         (100 m%)
    dc: dc = 633 mV      (63.3 %), step = 1 mV         (100 m%)
    dc: dc = 634 mV      (63.4 %), step = 1 mV         (100 m%)
    dc: dc = 635 mV      (63.5 %), step = 1 mV         (100 m%)
    dc: dc = 636 mV      (63.6 %), step = 1 mV         (100 m%)
    dc: dc = 637 mV      (63.7 %), step = 1 mV         (100 m%)
    dc: dc = 638 mV      (63.8 %), step = 1 mV         (100 m%)
    dc: dc = 639 mV      (63.9 %), step = 1 mV         (100 m%)
    dc: dc = 640 mV        (64 %), step = 1 mV         (100 m%)
    dc: dc = 641 mV      (64.1 %), step = 1 mV         (100 m%)
    dc: dc = 642 mV      (64.2 %), step = 1 mV         (100 m%)
    dc: dc = 643 mV      (64.3 %), step = 1 mV         (100 m%)
    dc: dc = 644 mV      (64.4 %), step = 1 mV         (100 m%)
    dc: dc = 645 mV      (64.5 %), step = 1 mV         (100 m%)
    dc: dc = 646 mV      (64.6 %), step = 1 mV         (100 m%)
    dc: dc = 647 mV      (64.7 %), step = 1 mV         (100 m%)
    dc: dc = 648 mV      (64.8 %), step = 1 mV         (100 m%)
    dc: dc = 649 mV      (64.9 %), step = 1 mV         (100 m%)
    dc: dc = 650 mV        (65 %), step = 1 mV         (100 m%)
    dc: dc = 651 mV      (65.1 %), step = 1 mV         (100 m%)
    dc: dc = 652 mV      (65.2 %), step = 1 mV         (100 m%)
    dc: dc = 653 mV      (65.3 %), step = 1 mV         (100 m%)
    dc: dc = 654 mV      (65.4 %), step = 1 mV         (100 m%)
    dc: dc = 655 mV      (65.5 %), step = 1 mV         (100 m%)
    dc: dc = 656 mV      (65.6 %), step = 1 mV         (100 m%)
    dc: dc = 657 mV      (65.7 %), step = 1 mV         (100 m%)
    dc: dc = 658 mV      (65.8 %), step = 1 mV         (100 m%)
    dc: dc = 659 mV      (65.9 %), step = 1 mV         (100 m%)
    dc: dc = 660 mV        (66 %), step = 1 mV         (100 m%)
    dc: dc = 661 mV      (66.1 %), step = 1 mV         (100 m%)
    dc: dc = 662 mV      (66.2 %), step = 1 mV         (100 m%)
    dc: dc = 663 mV      (66.3 %), step = 1 mV         (100 m%)
    dc: dc = 664 mV      (66.4 %), step = 1 mV         (100 m%)
    dc: dc = 665 mV      (66.5 %), step = 1 mV         (100 m%)
    dc: dc = 666 mV      (66.6 %), step = 1 mV         (100 m%)
    dc: dc = 667 mV      (66.7 %), step = 1 mV         (100 m%)
    dc: dc = 668 mV      (66.8 %), step = 1 mV         (100 m%)
    dc: dc = 669 mV      (66.9 %), step = 1 mV         (100 m%)
    dc: dc = 670 mV        (67 %), step = 1 mV         (100 m%)
    dc: dc = 671 mV      (67.1 %), step = 1 mV         (100 m%)
    dc: dc = 672 mV      (67.2 %), step = 1 mV         (100 m%)
    dc: dc = 673 mV      (67.3 %), step = 1 mV         (100 m%)
    dc: dc = 674 mV      (67.4 %), step = 1 mV         (100 m%)
    dc: dc = 675 mV      (67.5 %), step = 1 mV         (100 m%)
    dc: dc = 676 mV      (67.6 %), step = 1 mV         (100 m%)
    dc: dc = 677 mV      (67.7 %), step = 1 mV         (100 m%)
    dc: dc = 678 mV      (67.8 %), step = 1 mV         (100 m%)
    dc: dc = 679 mV      (67.9 %), step = 1 mV         (100 m%)
    dc: dc = 680 mV        (68 %), step = 1 mV         (100 m%)
    dc: dc = 681 mV      (68.1 %), step = 1 mV         (100 m%)
    dc: dc = 682 mV      (68.2 %), step = 1 mV         (100 m%)
    dc: dc = 683 mV      (68.3 %), step = 1 mV         (100 m%)
    dc: dc = 684 mV      (68.4 %), step = 1 mV         (100 m%)
    dc: dc = 685 mV      (68.5 %), step = 1 mV         (100 m%)
    dc: dc = 686 mV      (68.6 %), step = 1 mV         (100 m%)
    dc: dc = 687 mV      (68.7 %), step = 1 mV         (100 m%)
    dc: dc = 688 mV      (68.8 %), step = 1 mV         (100 m%)
    dc: dc = 689 mV      (68.9 %), step = 1 mV         (100 m%)
    dc: dc = 690 mV        (69 %), step = 1 mV         (100 m%)
    dc: dc = 691 mV      (69.1 %), step = 1 mV         (100 m%)
    dc: dc = 692 mV      (69.2 %), step = 1 mV         (100 m%)
    dc: dc = 693 mV      (69.3 %), step = 1 mV         (100 m%)
    dc: dc = 694 mV      (69.4 %), step = 1 mV         (100 m%)
    dc: dc = 695 mV      (69.5 %), step = 1 mV         (100 m%)
    dc: dc = 696 mV      (69.6 %), step = 1 mV         (100 m%)
    dc: dc = 697 mV      (69.7 %), step = 1 mV         (100 m%)
    dc: dc = 698 mV      (69.8 %), step = 1 mV         (100 m%)
    dc: dc = 699 mV      (69.9 %), step = 1 mV         (100 m%)
    dc: dc = 700 mV        (70 %), step = 1 mV         (100 m%)
    dc: dc = 701 mV      (70.1 %), step = 1 mV         (100 m%)
    dc: dc = 702 mV      (70.2 %), step = 1 mV         (100 m%)
    dc: dc = 703 mV      (70.3 %), step = 1 mV         (100 m%)
    dc: dc = 704 mV      (70.4 %), step = 1 mV         (100 m%)
    dc: dc = 705 mV      (70.5 %), step = 1 mV         (100 m%)
    dc: dc = 706 mV      (70.6 %), step = 1 mV         (100 m%)
    dc: dc = 707 mV      (70.7 %), step = 1 mV         (100 m%)
    dc: dc = 708 mV      (70.8 %), step = 1 mV         (100 m%)
    dc: dc = 709 mV      (70.9 %), step = 1 mV         (100 m%)
    dc: dc = 710 mV        (71 %), step = 1 mV         (100 m%)
    dc: dc = 711 mV      (71.1 %), step = 1 mV         (100 m%)
    dc: dc = 712 mV      (71.2 %), step = 1 mV         (100 m%)
    dc: dc = 713 mV      (71.3 %), step = 1 mV         (100 m%)
    dc: dc = 714 mV      (71.4 %), step = 1 mV         (100 m%)
    dc: dc = 715 mV      (71.5 %), step = 1 mV         (100 m%)
    dc: dc = 716 mV      (71.6 %), step = 1 mV         (100 m%)
    dc: dc = 717 mV      (71.7 %), step = 1 mV         (100 m%)
    dc: dc = 718 mV      (71.8 %), step = 1 mV         (100 m%)
    dc: dc = 719 mV      (71.9 %), step = 1 mV         (100 m%)
    dc: dc = 720 mV        (72 %), step = 1 mV         (100 m%)
    dc: dc = 721 mV      (72.1 %), step = 1 mV         (100 m%)
    dc: dc = 722 mV      (72.2 %), step = 1 mV         (100 m%)
    dc: dc = 723 mV      (72.3 %), step = 1 mV         (100 m%)
    dc: dc = 724 mV      (72.4 %), step = 1 mV         (100 m%)
    dc: dc = 725 mV      (72.5 %), step = 1 mV         (100 m%)
    dc: dc = 726 mV      (72.6 %), step = 1 mV         (100 m%)
    dc: dc = 727 mV      (72.7 %), step = 1 mV         (100 m%)
    dc: dc = 728 mV      (72.8 %), step = 1 mV         (100 m%)
    dc: dc = 729 mV      (72.9 %), step = 1 mV         (100 m%)
    dc: dc = 730 mV        (73 %), step = 1 mV         (100 m%)
    dc: dc = 731 mV      (73.1 %), step = 1 mV         (100 m%)
    dc: dc = 732 mV      (73.2 %), step = 1 mV         (100 m%)
    dc: dc = 733 mV      (73.3 %), step = 1 mV         (100 m%)
    dc: dc = 734 mV      (73.4 %), step = 1 mV         (100 m%)
    dc: dc = 735 mV      (73.5 %), step = 1 mV         (100 m%)
    dc: dc = 736 mV      (73.6 %), step = 1 mV         (100 m%)
    dc: dc = 737 mV      (73.7 %), step = 1 mV         (100 m%)
    dc: dc = 738 mV      (73.8 %), step = 1 mV         (100 m%)
    dc: dc = 739 mV      (73.9 %), step = 1 mV         (100 m%)
    dc: dc = 740 mV        (74 %), step = 1 mV         (100 m%)
    dc: dc = 741 mV      (74.1 %), step = 1 mV         (100 m%)
    dc: dc = 742 mV      (74.2 %), step = 1 mV         (100 m%)
    dc: dc = 743 mV      (74.3 %), step = 1 mV         (100 m%)
    dc: dc = 744 mV      (74.4 %), step = 1 mV         (100 m%)
    dc: dc = 745 mV      (74.5 %), step = 1 mV         (100 m%)
    dc: dc = 746 mV      (74.6 %), step = 1 mV         (100 m%)
    dc: dc = 747 mV      (74.7 %), step = 1 mV         (100 m%)
    dc: dc = 748 mV      (74.8 %), step = 1 mV         (100 m%)
    dc: dc = 749 mV      (74.9 %), step = 1 mV         (100 m%)
    dc: dc = 750 mV        (75 %), step = 1 mV         (100 m%)
    dc: dc = 751 mV      (75.1 %), step = 1 mV         (100 m%)
    dc: dc = 752 mV      (75.2 %), step = 1 mV         (100 m%)
    dc: dc = 753 mV      (75.3 %), step = 1 mV         (100 m%)
    dc: dc = 754 mV      (75.4 %), step = 1 mV         (100 m%)
    dc: dc = 755 mV      (75.5 %), step = 1 mV         (100 m%)
    dc: dc = 756 mV      (75.6 %), step = 1 mV         (100 m%)
    dc: dc = 757 mV      (75.7 %), step = 1 mV         (100 m%)
    dc: dc = 758 mV      (75.8 %), step = 1 mV         (100 m%)
    dc: dc = 759 mV      (75.9 %), step = 1 mV         (100 m%)
    dc: dc = 760 mV        (76 %), step = 1 mV         (100 m%)
    dc: dc = 761 mV      (76.1 %), step = 1 mV         (100 m%)
    dc: dc = 762 mV      (76.2 %), step = 1 mV         (100 m%)
    dc: dc = 763 mV      (76.3 %), step = 1 mV         (100 m%)
    dc: dc = 764 mV      (76.4 %), step = 1 mV         (100 m%)
    dc: dc = 765 mV      (76.5 %), step = 1 mV         (100 m%)
    dc: dc = 766 mV      (76.6 %), step = 1 mV         (100 m%)
    dc: dc = 767 mV      (76.7 %), step = 1 mV         (100 m%)
    dc: dc = 768 mV      (76.8 %), step = 1 mV         (100 m%)
    dc: dc = 769 mV      (76.9 %), step = 1 mV         (100 m%)
    dc: dc = 770 mV        (77 %), step = 1 mV         (100 m%)
    dc: dc = 771 mV      (77.1 %), step = 1 mV         (100 m%)
    dc: dc = 772 mV      (77.2 %), step = 1 mV         (100 m%)
    dc: dc = 773 mV      (77.3 %), step = 1 mV         (100 m%)
    dc: dc = 774 mV      (77.4 %), step = 1 mV         (100 m%)
    dc: dc = 775 mV      (77.5 %), step = 1 mV         (100 m%)
    dc: dc = 776 mV      (77.6 %), step = 1 mV         (100 m%)
    dc: dc = 777 mV      (77.7 %), step = 1 mV         (100 m%)
    dc: dc = 778 mV      (77.8 %), step = 1 mV         (100 m%)
    dc: dc = 779 mV      (77.9 %), step = 1 mV         (100 m%)
    dc: dc = 780 mV        (78 %), step = 1 mV         (100 m%)
    dc: dc = 781 mV      (78.1 %), step = 1 mV         (100 m%)
    dc: dc = 782 mV      (78.2 %), step = 1 mV         (100 m%)
    dc: dc = 783 mV      (78.3 %), step = 1 mV         (100 m%)
    dc: dc = 784 mV      (78.4 %), step = 1 mV         (100 m%)
    dc: dc = 785 mV      (78.5 %), step = 1 mV         (100 m%)
    dc: dc = 786 mV      (78.6 %), step = 1 mV         (100 m%)
    dc: dc = 787 mV      (78.7 %), step = 1 mV         (100 m%)
    dc: dc = 788 mV      (78.8 %), step = 1 mV         (100 m%)
    dc: dc = 789 mV      (78.9 %), step = 1 mV         (100 m%)
    dc: dc = 790 mV        (79 %), step = 1 mV         (100 m%)
    dc: dc = 791 mV      (79.1 %), step = 1 mV         (100 m%)
    dc: dc = 792 mV      (79.2 %), step = 1 mV         (100 m%)
    dc: dc = 793 mV      (79.3 %), step = 1 mV         (100 m%)
    dc: dc = 794 mV      (79.4 %), step = 1 mV         (100 m%)
    dc: dc = 795 mV      (79.5 %), step = 1 mV         (100 m%)
    dc: dc = 796 mV      (79.6 %), step = 1 mV         (100 m%)
    dc: dc = 797 mV      (79.7 %), step = 1 mV         (100 m%)
    dc: dc = 798 mV      (79.8 %), step = 1 mV         (100 m%)
    dc: dc = 799 mV      (79.9 %), step = 1 mV         (100 m%)
    dc: dc = 800 mV        (80 %), step = 1 mV         (100 m%)
    dc: dc = 801 mV      (80.1 %), step = 1 mV         (100 m%)
    dc: dc = 802 mV      (80.2 %), step = 1 mV         (100 m%)
    dc: dc = 803 mV      (80.3 %), step = 1 mV         (100 m%)
    dc: dc = 804 mV      (80.4 %), step = 1 mV         (100 m%)
    dc: dc = 805 mV      (80.5 %), step = 1 mV         (100 m%)
    dc: dc = 806 mV      (80.6 %), step = 1 mV         (100 m%)
    dc: dc = 807 mV      (80.7 %), step = 1 mV         (100 m%)
    dc: dc = 808 mV      (80.8 %), step = 1 mV         (100 m%)
    dc: dc = 809 mV      (80.9 %), step = 1 mV         (100 m%)
    dc: dc = 810 mV        (81 %), step = 1 mV         (100 m%)
    dc: dc = 811 mV      (81.1 %), step = 1 mV         (100 m%)
    dc: dc = 812 mV      (81.2 %), step = 1 mV         (100 m%)
    dc: dc = 813 mV      (81.3 %), step = 1 mV         (100 m%)
    dc: dc = 814 mV      (81.4 %), step = 1 mV         (100 m%)
    dc: dc = 815 mV      (81.5 %), step = 1 mV         (100 m%)
    dc: dc = 816 mV      (81.6 %), step = 1 mV         (100 m%)
    dc: dc = 817 mV      (81.7 %), step = 1 mV         (100 m%)
    dc: dc = 818 mV      (81.8 %), step = 1 mV         (100 m%)
    dc: dc = 819 mV      (81.9 %), step = 1 mV         (100 m%)
    dc: dc = 820 mV        (82 %), step = 1 mV         (100 m%)
    dc: dc = 821 mV      (82.1 %), step = 1 mV         (100 m%)
    dc: dc = 822 mV      (82.2 %), step = 1 mV         (100 m%)
    dc: dc = 823 mV      (82.3 %), step = 1 mV         (100 m%)
    dc: dc = 824 mV      (82.4 %), step = 1 mV         (100 m%)
    dc: dc = 825 mV      (82.5 %), step = 1 mV         (100 m%)
    dc: dc = 826 mV      (82.6 %), step = 1 mV         (100 m%)
    dc: dc = 827 mV      (82.7 %), step = 1 mV         (100 m%)
    dc: dc = 828 mV      (82.8 %), step = 1 mV         (100 m%)
    dc: dc = 829 mV      (82.9 %), step = 1 mV         (100 m%)
    dc: dc = 830 mV        (83 %), step = 1 mV         (100 m%)
    dc: dc = 831 mV      (83.1 %), step = 1 mV         (100 m%)
    dc: dc = 832 mV      (83.2 %), step = 1 mV         (100 m%)
    dc: dc = 833 mV      (83.3 %), step = 1 mV         (100 m%)
    dc: dc = 834 mV      (83.4 %), step = 1 mV         (100 m%)
    dc: dc = 835 mV      (83.5 %), step = 1 mV         (100 m%)
    dc: dc = 836 mV      (83.6 %), step = 1 mV         (100 m%)
    dc: dc = 837 mV      (83.7 %), step = 1 mV         (100 m%)
    dc: dc = 838 mV      (83.8 %), step = 1 mV         (100 m%)
    dc: dc = 839 mV      (83.9 %), step = 1 mV         (100 m%)
    dc: dc = 840 mV        (84 %), step = 1 mV         (100 m%)
    dc: dc = 841 mV      (84.1 %), step = 1 mV         (100 m%)
    dc: dc = 842 mV      (84.2 %), step = 1 mV         (100 m%)
    dc: dc = 843 mV      (84.3 %), step = 1 mV         (100 m%)
    dc: dc = 844 mV      (84.4 %), step = 1 mV         (100 m%)
    dc: dc = 845 mV      (84.5 %), step = 1 mV         (100 m%)
    dc: dc = 846 mV      (84.6 %), step = 1 mV         (100 m%)
    dc: dc = 847 mV      (84.7 %), step = 1 mV         (100 m%)
    dc: dc = 848 mV      (84.8 %), step = 1 mV         (100 m%)
    dc: dc = 849 mV      (84.9 %), step = 1 mV         (100 m%)
    dc: dc = 850 mV        (85 %), step = 1 mV         (100 m%)
    dc: dc = 851 mV      (85.1 %), step = 1 mV         (100 m%)
    dc: dc = 852 mV      (85.2 %), step = 1 mV         (100 m%)
    dc: dc = 853 mV      (85.3 %), step = 1 mV         (100 m%)
    dc: dc = 854 mV      (85.4 %), step = 1 mV         (100 m%)
    dc: dc = 855 mV      (85.5 %), step = 1 mV         (100 m%)
    dc: dc = 856 mV      (85.6 %), step = 1 mV         (100 m%)
    dc: dc = 857 mV      (85.7 %), step = 1 mV         (100 m%)
    dc: dc = 858 mV      (85.8 %), step = 1 mV         (100 m%)
    dc: dc = 859 mV      (85.9 %), step = 1 mV         (100 m%)
    dc: dc = 860 mV        (86 %), step = 1 mV         (100 m%)
    dc: dc = 861 mV      (86.1 %), step = 1 mV         (100 m%)
    dc: dc = 862 mV      (86.2 %), step = 1 mV         (100 m%)
    dc: dc = 863 mV      (86.3 %), step = 1 mV         (100 m%)
    dc: dc = 864 mV      (86.4 %), step = 1 mV         (100 m%)
    dc: dc = 865 mV      (86.5 %), step = 1 mV         (100 m%)
    dc: dc = 866 mV      (86.6 %), step = 1 mV         (100 m%)
    dc: dc = 867 mV      (86.7 %), step = 1 mV         (100 m%)
    dc: dc = 868 mV      (86.8 %), step = 1 mV         (100 m%)
    dc: dc = 869 mV      (86.9 %), step = 1 mV         (100 m%)
    dc: dc = 870 mV        (87 %), step = 1 mV         (100 m%)
    dc: dc = 871 mV      (87.1 %), step = 1 mV         (100 m%)
    dc: dc = 872 mV      (87.2 %), step = 1 mV         (100 m%)
    dc: dc = 873 mV      (87.3 %), step = 1 mV         (100 m%)
    dc: dc = 874 mV      (87.4 %), step = 1 mV         (100 m%)
    dc: dc = 875 mV      (87.5 %), step = 1 mV         (100 m%)
    dc: dc = 876 mV      (87.6 %), step = 1 mV         (100 m%)
    dc: dc = 877 mV      (87.7 %), step = 1 mV         (100 m%)
    dc: dc = 878 mV      (87.8 %), step = 1 mV         (100 m%)
    dc: dc = 879 mV      (87.9 %), step = 1 mV         (100 m%)
    dc: dc = 880 mV        (88 %), step = 1 mV         (100 m%)
    dc: dc = 881 mV      (88.1 %), step = 1 mV         (100 m%)
    dc: dc = 882 mV      (88.2 %), step = 1 mV         (100 m%)
    dc: dc = 883 mV      (88.3 %), step = 1 mV         (100 m%)
    dc: dc = 884 mV      (88.4 %), step = 1 mV         (100 m%)
    dc: dc = 885 mV      (88.5 %), step = 1 mV         (100 m%)
    dc: dc = 886 mV      (88.6 %), step = 1 mV         (100 m%)
    dc: dc = 887 mV      (88.7 %), step = 1 mV         (100 m%)
    dc: dc = 888 mV      (88.8 %), step = 1 mV         (100 m%)
    dc: dc = 889 mV      (88.9 %), step = 1 mV         (100 m%)
    dc: dc = 890 mV        (89 %), step = 1 mV         (100 m%)
    dc: dc = 891 mV      (89.1 %), step = 1 mV         (100 m%)
    dc: dc = 892 mV      (89.2 %), step = 1 mV         (100 m%)
    dc: dc = 893 mV      (89.3 %), step = 1 mV         (100 m%)
    dc: dc = 894 mV      (89.4 %), step = 1 mV         (100 m%)
    dc: dc = 895 mV      (89.5 %), step = 1 mV         (100 m%)
    dc: dc = 896 mV      (89.6 %), step = 1 mV         (100 m%)
    dc: dc = 897 mV      (89.7 %), step = 1 mV         (100 m%)
    dc: dc = 898 mV      (89.8 %), step = 1 mV         (100 m%)
    dc: dc = 899 mV      (89.9 %), step = 1 mV         (100 m%)
    dc: dc = 900 mV        (90 %), step = 1 mV         (100 m%)
    dc: dc = 901 mV      (90.1 %), step = 1 mV         (100 m%)
    dc: dc = 902 mV      (90.2 %), step = 1 mV         (100 m%)
    dc: dc = 903 mV      (90.3 %), step = 1 mV         (100 m%)
    dc: dc = 904 mV      (90.4 %), step = 1 mV         (100 m%)
    dc: dc = 905 mV      (90.5 %), step = 1 mV         (100 m%)
    dc: dc = 906 mV      (90.6 %), step = 1 mV         (100 m%)
    dc: dc = 907 mV      (90.7 %), step = 1 mV         (100 m%)
    dc: dc = 908 mV      (90.8 %), step = 1 mV         (100 m%)
    dc: dc = 909 mV      (90.9 %), step = 1 mV         (100 m%)
    dc: dc = 910 mV        (91 %), step = 1 mV         (100 m%)
    dc: dc = 911 mV      (91.1 %), step = 1 mV         (100 m%)
    dc: dc = 912 mV      (91.2 %), step = 1 mV         (100 m%)
    dc: dc = 913 mV      (91.3 %), step = 1 mV         (100 m%)
    dc: dc = 914 mV      (91.4 %), step = 1 mV         (100 m%)
    dc: dc = 915 mV      (91.5 %), step = 1 mV         (100 m%)
    dc: dc = 916 mV      (91.6 %), step = 1 mV         (100 m%)
    dc: dc = 917 mV      (91.7 %), step = 1 mV         (100 m%)
    dc: dc = 918 mV      (91.8 %), step = 1 mV         (100 m%)
    dc: dc = 919 mV      (91.9 %), step = 1 mV         (100 m%)
    dc: dc = 920 mV        (92 %), step = 1 mV         (100 m%)
    dc: dc = 921 mV      (92.1 %), step = 1 mV         (100 m%)
    dc: dc = 922 mV      (92.2 %), step = 1 mV         (100 m%)
    dc: dc = 923 mV      (92.3 %), step = 1 mV         (100 m%)
    dc: dc = 924 mV      (92.4 %), step = 1 mV         (100 m%)
    dc: dc = 925 mV      (92.5 %), step = 1 mV         (100 m%)
    dc: dc = 926 mV      (92.6 %), step = 1 mV         (100 m%)
    dc: dc = 927 mV      (92.7 %), step = 1 mV         (100 m%)
    dc: dc = 928 mV      (92.8 %), step = 1 mV         (100 m%)
    dc: dc = 929 mV      (92.9 %), step = 1 mV         (100 m%)
    dc: dc = 930 mV        (93 %), step = 1 mV         (100 m%)
    dc: dc = 931 mV      (93.1 %), step = 1 mV         (100 m%)
    dc: dc = 932 mV      (93.2 %), step = 1 mV         (100 m%)
    dc: dc = 933 mV      (93.3 %), step = 1 mV         (100 m%)
    dc: dc = 934 mV      (93.4 %), step = 1 mV         (100 m%)
    dc: dc = 935 mV      (93.5 %), step = 1 mV         (100 m%)
    dc: dc = 936 mV      (93.6 %), step = 1 mV         (100 m%)
    dc: dc = 937 mV      (93.7 %), step = 1 mV         (100 m%)
    dc: dc = 938 mV      (93.8 %), step = 1 mV         (100 m%)
    dc: dc = 939 mV      (93.9 %), step = 1 mV         (100 m%)
    dc: dc = 940 mV        (94 %), step = 1 mV         (100 m%)
    dc: dc = 941 mV      (94.1 %), step = 1 mV         (100 m%)
    dc: dc = 942 mV      (94.2 %), step = 1 mV         (100 m%)
    dc: dc = 943 mV      (94.3 %), step = 1 mV         (100 m%)
    dc: dc = 944 mV      (94.4 %), step = 1 mV         (100 m%)
    dc: dc = 945 mV      (94.5 %), step = 1 mV         (100 m%)
    dc: dc = 946 mV      (94.6 %), step = 1 mV         (100 m%)
    dc: dc = 947 mV      (94.7 %), step = 1 mV         (100 m%)
    dc: dc = 948 mV      (94.8 %), step = 1 mV         (100 m%)
    dc: dc = 949 mV      (94.9 %), step = 1 mV         (100 m%)
    dc: dc = 950 mV        (95 %), step = 1 mV         (100 m%)
    dc: dc = 951 mV      (95.1 %), step = 1 mV         (100 m%)
    dc: dc = 952 mV      (95.2 %), step = 1 mV         (100 m%)
    dc: dc = 953 mV      (95.3 %), step = 1 mV         (100 m%)
    dc: dc = 954 mV      (95.4 %), step = 1 mV         (100 m%)
    dc: dc = 955 mV      (95.5 %), step = 1 mV         (100 m%)
    dc: dc = 956 mV      (95.6 %), step = 1 mV         (100 m%)
    dc: dc = 957 mV      (95.7 %), step = 1 mV         (100 m%)
    dc: dc = 958 mV      (95.8 %), step = 1 mV         (100 m%)
    dc: dc = 959 mV      (95.9 %), step = 1 mV         (100 m%)
    dc: dc = 960 mV        (96 %), step = 1 mV         (100 m%)
    dc: dc = 961 mV      (96.1 %), step = 1 mV         (100 m%)
    dc: dc = 962 mV      (96.2 %), step = 1 mV         (100 m%)
    dc: dc = 963 mV      (96.3 %), step = 1 mV         (100 m%)
    dc: dc = 964 mV      (96.4 %), step = 1 mV         (100 m%)
    dc: dc = 965 mV      (96.5 %), step = 1 mV         (100 m%)
    dc: dc = 966 mV      (96.6 %), step = 1 mV         (100 m%)
    dc: dc = 967 mV      (96.7 %), step = 1 mV         (100 m%)
    dc: dc = 968 mV      (96.8 %), step = 1 mV         (100 m%)
    dc: dc = 969 mV      (96.9 %), step = 1 mV         (100 m%)
    dc: dc = 970 mV        (97 %), step = 1 mV         (100 m%)
    dc: dc = 971 mV      (97.1 %), step = 1 mV         (100 m%)
    dc: dc = 972 mV      (97.2 %), step = 1 mV         (100 m%)
    dc: dc = 973 mV      (97.3 %), step = 1 mV         (100 m%)
    dc: dc = 974 mV      (97.4 %), step = 1 mV         (100 m%)
    dc: dc = 975 mV      (97.5 %), step = 1 mV         (100 m%)
    dc: dc = 976 mV      (97.6 %), step = 1 mV         (100 m%)
    dc: dc = 977 mV      (97.7 %), step = 1 mV         (100 m%)
    dc: dc = 978 mV      (97.8 %), step = 1 mV         (100 m%)
    dc: dc = 979 mV      (97.9 %), step = 1 mV         (100 m%)
    dc: dc = 980 mV        (98 %), step = 1 mV         (100 m%)
    dc: dc = 981 mV      (98.1 %), step = 1 mV         (100 m%)
    dc: dc = 982 mV      (98.2 %), step = 1 mV         (100 m%)
    dc: dc = 983 mV      (98.3 %), step = 1 mV         (100 m%)
    dc: dc = 984 mV      (98.4 %), step = 1 mV         (100 m%)
    dc: dc = 985 mV      (98.5 %), step = 1 mV         (100 m%)
    dc: dc = 986 mV      (98.6 %), step = 1 mV         (100 m%)
    dc: dc = 987 mV      (98.7 %), step = 1 mV         (100 m%)
    dc: dc = 988 mV      (98.8 %), step = 1 mV         (100 m%)
    dc: dc = 989 mV      (98.9 %), step = 1 mV         (100 m%)
    dc: dc = 990 mV        (99 %), step = 1 mV         (100 m%)
    dc: dc = 991 mV      (99.1 %), step = 1 mV         (100 m%)
    dc: dc = 992 mV      (99.2 %), step = 1 mV         (100 m%)
    dc: dc = 993 mV      (99.3 %), step = 1 mV         (100 m%)
    dc: dc = 994 mV      (99.4 %), step = 1 mV         (100 m%)
    dc: dc = 995 mV      (99.5 %), step = 1 mV         (100 m%)
    dc: dc = 996 mV      (99.6 %), step = 1 mV         (100 m%)
    dc: dc = 997 mV      (99.7 %), step = 1 mV         (100 m%)
    dc: dc = 998 mV      (99.8 %), step = 1 mV         (100 m%)
    dc: dc = 999 mV      (99.9 %), step = 1 mV         (100 m%)
    dc: dc = 1 V          (100 %), step = 1 mV         (100 m%)

Maximum value achieved for any signal of each quantity: 
V: V(dut_in) = 1 V
I: I(v0:p) = 8.676 pA
DC simulation time: CPU = 20.795 ms, elapsed = 21.7309 ms.

Notice from spectre at dc = 1 V during DC analysis `dc'.
    The value of parameter 'dc' has been reset to the original value 1.

Total time required for dc analysis `dc': CPU = 20.812 ms, elapsed = 21.7481 ms, util. = 95.7%.
Time accumulated: CPU = 327.359 ms, elapsed = 1.88021 s.
Peak resident memory used = 206 Mbytes.

modelParameter: writing model parameter values to rawfile.

Opening the PSF file ../psf/modelParameter.info ...
element: writing instance parameter values to rawfile.

Opening the PSF file ../psf/element.info ...
outputParameter: writing output parameter values to rawfile.

Opening the PSF file ../psf/outputParameter.info ...
designParamVals: writing netlist parameters to rawfile.

Opening the PSFASCII file ../psf/designParamVals.info ...
primitives: writing primitives to rawfile.

Opening the PSFASCII file ../psf/primitives.info.primitives ...
subckts: writing subcircuits to rawfile.

Opening the PSFASCII file ../psf/subckts.info.subckts ...
Licensing Information:
Lic Summary:
[15:49:25.359906] Cdslmd servers:5280@192.168.0.10
[15:49:25.359914] Feature usage summary:
[15:49:25.359914] Virtuoso_Multi_mode_Simulation


Aggregate audit (3:49:25 PM, Thur Oct 24, 2024):
Time used: CPU = 338 ms, elapsed = 1.9 s, util. = 17.8%.
Time spent in licensing: elapsed = 955 ms, percentage of total = 50.3%.
Peak memory used = 209 Mbytes.
Simulation started at: 3:49:23 PM, Thur Oct 24, 2024, ended at: 3:49:25 PM, Thur Oct 24, 2024, with elapsed time (wall clock): 1.9 s.
spectre completes with 0 errors, 0 warnings, and 6 notices.


********* LOG ENDS **************
**                             **
